design_18
     RDKit          3D

 46 48  0  0  0  0  0  0  0  0999 V2000
   -9.4244   -8.5935   -5.3102 C   0  0  0  0  0  0  0  0  0  0  0  0
  -10.1049   -7.2664   -5.0695 C   0  0  0  0  0  0  0  0  0  0  0  0
  -10.5540   -7.2160   -3.7111 N   0  0  0  0  0  0  0  0  0  0  0  0
   -9.7218   -7.2077   -2.6445 N   0  0  0  0  0  0  0  0  0  0  0  0
  -10.4021   -7.1926   -1.5317 N   0  0  0  0  0  0  0  0  0  0  0  0
  -11.6600   -7.1906   -1.8823 N   0  0  0  0  0  0  0  0  0  0  0  0
  -11.7854   -7.2043   -3.2571 C   0  0  0  0  0  0  0  0  0  0  0  0
  -13.0799   -7.2310   -3.8985 C   0  0  0  0  0  0  0  0  0  0  0  0
  -13.3628   -7.5964   -5.1726 C   0  0  0  0  0  0  0  0  0  0  0  0
  -14.6360   -7.6401   -5.6996 C   0  0  0  0  0  0  0  0  0  0  0  0
  -15.7031   -7.3081   -4.9450 C   0  0  0  0  0  0  0  0  0  0  0  0
  -15.4955   -6.9166   -3.6125 C   0  0  0  0  0  0  0  0  0  0  0  0
  -16.6525   -6.5828   -2.8829 N   0  0  0  0  0  0  0  0  0  0  0  0
  -16.6866   -6.1347   -1.5663 C   0  0  0  0  0  0  0  0  0  0  0  0
  -15.6939   -5.9695   -0.8522 O   0  0  0  0  0  0  0  0  0  0  0  0
  -17.9676   -5.8312   -0.9604 N   0  0  0  0  0  0  0  0  0  0  0  0
  -18.0501   -5.3702    0.3838 C   0  0  0  0  0  0  0  0  0  0  0  0
  -17.4800   -4.0548    0.6684 C   0  0  0  0  0  0  0  0  0  0  0  0
  -16.1829   -3.7677    0.9812 C   0  0  0  0  0  0  0  0  0  0  0  0
  -15.7903   -2.4592    1.2269 C   0  0  0  0  0  0  0  0  0  0  0  0
  -16.6679   -1.4227    1.1675 C   0  0  0  0  0  0  0  0  0  0  0  0
  -17.9708   -1.6952    0.8552 C   0  0  0  0  0  0  0  0  0  0  0  0
  -18.3710   -2.9802    0.6108 C   0  0  0  0  0  0  0  0  0  0  0  0
  -19.8066   -3.2343    0.2726 C   0  0  0  0  0  0  0  0  0  0  0  0
  -20.5477   -3.4058    1.4212 O   0  0  0  0  0  0  0  0  0  0  0  0
  -14.2099   -6.8876   -3.1288 C   0  0  0  0  0  0  0  0  0  0  0  0
   -8.4565   -8.6010   -4.8090 H   0  0  0  0  0  0  0  0  0  0  0  0
  -10.0444   -9.3976   -4.9138 H   0  0  0  0  0  0  0  0  0  0  0  0
   -9.2798   -8.7394   -6.3807 H   0  0  0  0  0  0  0  0  0  0  0  0
  -10.9547   -7.1594   -5.7437 H   0  0  0  0  0  0  0  0  0  0  0  0
   -9.4011   -6.4547   -5.2535 H   0  0  0  0  0  0  0  0  0  0  0  0
  -12.5316   -7.8730   -5.8212 H   0  0  0  0  0  0  0  0  0  0  0  0
  -14.7814   -7.9458   -6.7357 H   0  0  0  0  0  0  0  0  0  0  0  0
  -16.7095   -7.3430   -5.3622 H   0  0  0  0  0  0  0  0  0  0  0  0
  -17.5384   -6.6773   -3.3587 H   0  0  0  0  0  0  0  0  0  0  0  0
  -18.8137   -5.9484   -1.4994 H   0  0  0  0  0  0  0  0  0  0  0  0
  -17.4479   -6.0714    0.9616 H   0  0  0  0  0  0  0  0  0  0  0  0
  -19.1047   -5.3389    0.6576 H   0  0  0  0  0  0  0  0  0  0  0  0
  -15.4496   -4.5721    1.0385 H   0  0  0  0  0  0  0  0  0  0  0  0
  -14.7483   -2.2569    1.4746 H   0  0  0  0  0  0  0  0  0  0  0  0
  -16.3415   -0.4014    1.3637 H   0  0  0  0  0  0  0  0  0  0  0  0
  -18.6956   -0.8829    0.8006 H   0  0  0  0  0  0  0  0  0  0  0  0
  -19.8727   -4.1408   -0.3290 H   0  0  0  0  0  0  0  0  0  0  0  0
  -20.2003   -2.3853   -0.2863 H   0  0  0  0  0  0  0  0  0  0  0  0
  -20.6381   -2.5636    1.8730 H   0  0  0  0  0  0  0  0  0  0  0  0
  -14.0553   -6.5825   -2.0938 H   0  0  0  0  0  0  0  0  0  0  0  0
  1  2  1  0
  2  3  1  0
  3  4  1  0
  4  5  2  0
  5  6  1  0
  6  7  2  0
  7  8  1  0
  8  9  2  0
  9 10  1  0
 10 11  2  0
 11 12  1  0
 12 13  1  0
 13 14  1  0
 14 15  2  0
 14 16  1  0
 16 17  1  0
 17 18  1  0
 18 19  2  0
 19 20  1  0
 20 21  2  0
 21 22  1  0
 22 23  2  0
 23 24  1  0
 24 25  1  0
 12 26  2  0
  3  7  1  0
  8 26  1  0
 18 23  1  0
  1 27  1  0
  1 28  1  0
  1 29  1  0
  2 30  1  0
  2 31  1  0
  9 32  1  0
 10 33  1  0
 11 34  1  0
 13 35  1  0
 16 36  1  0
 17 37  1  0
 17 38  1  0
 19 39  1  0
 20 40  1  0
 21 41  1  0
 22 42  1  0
 24 43  1  0
 24 44  1  0
 25 45  1  0
 26 46  1  0
M  END
>  <CHROM.1>  (1) 
65.54951943,17.31776661,-178.12150393,66.29358976,-86.42720101,92.94566280
-178.26443940,-14.94787201,-5.71806082,-1.84865519,-0.72733613,-0.06183766
0.91603111

>  <Name>  (1) 
design_18

>  <RI>  (1) 
39991000.000000

>  <Rbt.Current_Directory>  (1) 
/pylon5/mc5pksp/smaltr/gateway_workdirs/PROCESS_93251df5-8da2-4fa9-b874-71853b29d1ad

>  <Rbt.Executable>  (1) 
rbdock ($Id: //depot/dev/client3/rdock/2013.1/src/exe/rbdock.cxx#4 $)

>  <Rbt.Library>  (1) 
libRbt.so (2013.1, Build901 2013/11/27)

>  <Rbt.Parameter_File>  (1) 
/home/smaltr/software/rDock_2013.1_src//data/scripts/dock.prm

>  <Rbt.Receptor>  (1) 
/pylon5/mc5pksp/smaltr/gateway_workdirs/PROCESS_93251df5-8da2-4fa9-b874-71853b29d1ad/output/SnD-Target-Sep02/cavity/pocket_docking.prm

>  <SCORE>  (1) 
-23.387500

>  <SCORE.INTER>  (1) 
-21.667500

>  <SCORE.INTER.CONST>  (1) 
1

>  <SCORE.INTER.POLAR>  (1) 
-2.282600

>  <SCORE.INTER.REPUL>  (1) 
0.002201

>  <SCORE.INTER.ROT>  (1) 
6

>  <SCORE.INTER.VDW>  (1) 
-25.317700

>  <SCORE.INTER.norm>  (1) 
-0.833366

>  <SCORE.INTRA>  (1) 
-1.720030

>  <SCORE.INTRA.DIHEDRAL>  (1) 
-0.068457

>  <SCORE.INTRA.DIHEDRAL.0>  (1) 
6.271440

>  <SCORE.INTRA.POLAR>  (1) 
0

>  <SCORE.INTRA.POLAR.0>  (1) 
0

>  <SCORE.INTRA.REPUL>  (1) 
-0.010613

>  <SCORE.INTRA.REPUL.0>  (1) 
0.031068

>  <SCORE.INTRA.VDW>  (1) 
-1.632730

>  <SCORE.INTRA.VDW.0>  (1) 
-0.730908

>  <SCORE.INTRA.norm>  (1) 
-0.066155

>  <SCORE.RESTR>  (1) 
0

>  <SCORE.RESTR.CAVITY>  (1) 
0

>  <SCORE.RESTR.norm>  (1) 
0

>  <SCORE.SYSTEM>  (1) 
0

>  <SCORE.SYSTEM.CONST>  (1) 
0

>  <SCORE.SYSTEM.DIHEDRAL>  (1) 
0

>  <SCORE.SYSTEM.norm>  (1) 
0

>  <SCORE.heavy>  (1) 
26

>  <SCORE.norm>  (1) 
-0.899520

>  <SMILES>  (1) 
CCn1nnnc1-c1cccc(NC(=O)NCc2ccccc2CO)c1

>  <Cycle>  (1) 
228

>  <MolWeight>  (1) 
352.398000

>  <LogP>  (1) 
2.174000

>  <QED>  (1) 
0.630513

>  <SAS>  (1) 
2.224531

$$$$
design_17
     RDKit          3D

 48 51  0  0  0  0  0  0  0  0999 V2000
  -20.0520   -6.6868   -0.8269 C   0  0  0  0  0  0  0  0  0  0  0  0
  -20.7732   -6.9639    0.4790 C   0  0  0  0  0  0  0  0  0  0  0  0
  -21.7088   -5.9598    0.8624 N   0  0  0  0  0  0  0  0  0  0  0  0
  -21.3637   -4.7999    1.4661 N   0  0  0  0  0  0  0  0  0  0  0  0
  -22.4333   -4.0747    1.6709 N   0  0  0  0  0  0  0  0  0  0  0  0
  -23.4432   -4.7408    1.2156 N   0  0  0  0  0  0  0  0  0  0  0  0
  -23.0215   -5.9426    0.6955 C   0  0  0  0  0  0  0  0  0  0  0  0
  -23.9536   -6.8886    0.0936 C   0  0  0  0  0  0  0  0  0  0  0  0
  -25.0071   -7.4528    0.7416 C   0  0  0  0  0  0  0  0  0  0  0  0
  -25.8547   -8.3799    0.1420 C   0  0  0  0  0  0  0  0  0  0  0  0
  -25.6208   -8.7474   -1.1714 C   0  0  0  0  0  0  0  0  0  0  0  0
  -24.5780   -8.2098   -1.8653 C   0  0  0  0  0  0  0  0  0  0  0  0
  -24.3261   -8.5568   -3.1932 N   0  0  0  0  0  0  0  0  0  0  0  0
  -24.9251   -9.5813   -3.9197 C   0  0  0  0  0  0  0  0  0  0  0  0
  -25.7934  -10.3249   -3.4423 O   0  0  0  0  0  0  0  0  0  0  0  0
  -24.5409   -9.8199   -5.3033 N   0  0  0  0  0  0  0  0  0  0  0  0
  -25.1571  -10.8701   -6.0428 C   0  0  0  0  0  0  0  0  0  0  0  0
  -25.8339  -10.3790   -7.3019 C   0  0  0  0  0  0  0  0  0  0  0  0
  -27.2608  -10.0492   -7.0187 C   0  0  0  0  0  0  0  0  0  0  0  0
  -27.8315  -10.0694   -5.7802 N   0  0  0  0  0  0  0  0  0  0  0  0
  -29.1228   -9.7183   -5.8717 C   0  0  0  0  0  0  0  0  0  0  0  0
  -30.1679   -9.5658   -4.9854 C   0  0  0  0  0  0  0  0  0  0  0  0
  -31.4267   -9.1815   -5.3807 C   0  0  0  0  0  0  0  0  0  0  0  0
  -31.6732   -8.9348   -6.7066 C   0  0  0  0  0  0  0  0  0  0  0  0
  -30.6595   -9.0759   -7.6157 C   0  0  0  0  0  0  0  0  0  0  0  0
  -29.4052   -9.4613   -7.2046 C   0  0  0  0  0  0  0  0  0  0  0  0
  -28.2345   -9.6787   -7.8569 N   0  0  0  0  0  0  0  0  0  0  0  0
  -23.7543   -7.2787   -1.2101 C   0  0  0  0  0  0  0  0  0  0  0  0
  -19.0484   -7.1100   -0.7840 H   0  0  0  0  0  0  0  0  0  0  0  0
  -20.6026   -7.1417   -1.6503 H   0  0  0  0  0  0  0  0  0  0  0  0
  -19.9853   -5.6103   -0.9845 H   0  0  0  0  0  0  0  0  0  0  0  0
  -20.0089   -6.9876    1.2557 H   0  0  0  0  0  0  0  0  0  0  0  0
  -21.3082   -7.9083    0.3794 H   0  0  0  0  0  0  0  0  0  0  0  0
  -25.1964   -7.1666    1.7762 H   0  0  0  0  0  0  0  0  0  0  0  0
  -26.6885   -8.8091    0.6976 H   0  0  0  0  0  0  0  0  0  0  0  0
  -26.2756   -9.4724   -1.6549 H   0  0  0  0  0  0  0  0  0  0  0  0
  -23.6342   -8.0047   -3.6796 H   0  0  0  0  0  0  0  0  0  0  0  0
  -23.8374   -9.2408   -5.7391 H   0  0  0  0  0  0  0  0  0  0  0  0
  -25.9251  -11.3121   -5.4080 H   0  0  0  0  0  0  0  0  0  0  0  0
  -24.3938  -11.5980   -6.3178 H   0  0  0  0  0  0  0  0  0  0  0  0
  -25.7914  -11.1617   -8.0593 H   0  0  0  0  0  0  0  0  0  0  0  0
  -25.3216   -9.4875   -7.6638 H   0  0  0  0  0  0  0  0  0  0  0  0
  -29.9883   -9.7580   -3.9276 H   0  0  0  0  0  0  0  0  0  0  0  0
  -32.2238   -9.0736   -4.6451 H   0  0  0  0  0  0  0  0  0  0  0  0
  -32.6670   -8.6292   -7.0338 H   0  0  0  0  0  0  0  0  0  0  0  0
  -30.8477   -8.8816   -8.6716 H   0  0  0  0  0  0  0  0  0  0  0  0
  -28.1138   -9.5734   -8.8541 H   0  0  0  0  0  0  0  0  0  0  0  0
  -22.9190   -6.8457   -1.7604 H   0  0  0  0  0  0  0  0  0  0  0  0
  1  2  1  0
  2  3  1  0
  3  4  1  0
  4  5  2  0
  5  6  1  0
  6  7  2  0
  7  8  1  0
  8  9  2  0
  9 10  1  0
 10 11  2  0
 11 12  1  0
 12 13  1  0
 13 14  1  0
 14 15  2  0
 14 16  1  0
 16 17  1  0
 17 18  1  0
 18 19  1  0
 19 20  2  0
 20 21  1  0
 21 22  2  0
 22 23  1  0
 23 24  2  0
 24 25  1  0
 25 26  2  0
 26 27  1  0
 12 28  2  0
  3  7  1  0
  8 28  1  0
 19 27  1  0
 21 26  1  0
  1 29  1  0
  1 30  1  0
  1 31  1  0
  2 32  1  0
  2 33  1  0
  9 34  1  0
 10 35  1  0
 11 36  1  0
 13 37  1  0
 16 38  1  0
 17 39  1  0
 17 40  1  0
 18 41  1  0
 18 42  1  0
 22 43  1  0
 23 44  1  0
 24 45  1  0
 25 46  1  0
 27 47  1  0
 28 48  1  0
M  END
>  <CHROM.1>  (2) 
-80.49157674,121.73773902,-9.80278763,122.31988195,-91.32301403,5.67726155
-25.55692558,-8.25886217,-3.04373844,-0.87904587,0.09998095,-2.12621327

>  <Name>  (2) 
design_17

>  <RI>  (2) 
27379400.000000

>  <Rbt.Current_Directory>  (2) 
/pylon5/mc5pksp/smaltr/gateway_workdirs/PROCESS_93251df5-8da2-4fa9-b874-71853b29d1ad

>  <Rbt.Executable>  (2) 
rbdock ($Id: //depot/dev/client3/rdock/2013.1/src/exe/rbdock.cxx#4 $)

>  <Rbt.Library>  (2) 
libRbt.so (2013.1, Build901 2013/11/27)

>  <Rbt.Parameter_File>  (2) 
/home/smaltr/software/rDock_2013.1_src//data/scripts/dock.prm

>  <Rbt.Receptor>  (2) 
/pylon5/mc5pksp/smaltr/gateway_workdirs/PROCESS_93251df5-8da2-4fa9-b874-71853b29d1ad/output/SnD-Target-Sep02/cavity/pocket_docking.prm

>  <SCORE>  (2) 
-14.972600

>  <SCORE.INTER>  (2) 
-20.605200

>  <SCORE.INTER.CONST>  (2) 
1

>  <SCORE.INTER.POLAR>  (2) 
-3.283030

>  <SCORE.INTER.REPUL>  (2) 
0.005960

>  <SCORE.INTER.ROT>  (2) 
6

>  <SCORE.INTER.VDW>  (2) 
-20.872700

>  <SCORE.INTER.norm>  (2) 
-0.735898

>  <SCORE.INTRA>  (2) 
5.632560

>  <SCORE.INTRA.DIHEDRAL>  (2) 
12.015300

>  <SCORE.INTRA.DIHEDRAL.0>  (2) 
5.521370

>  <SCORE.INTRA.POLAR>  (2) 
0

>  <SCORE.INTRA.POLAR.0>  (2) 
0

>  <SCORE.INTRA.REPUL>  (2) 
0

>  <SCORE.INTRA.REPUL.0>  (2) 
0

>  <SCORE.INTRA.VDW>  (2) 
-0.375072

>  <SCORE.INTRA.VDW.0>  (2) 
-1.460840

>  <SCORE.INTRA.norm>  (2) 
0.201163

>  <SCORE.RESTR>  (2) 
0

>  <SCORE.RESTR.CAVITY>  (2) 
0

>  <SCORE.RESTR.norm>  (2) 
0

>  <SCORE.SYSTEM>  (2) 
0

>  <SCORE.SYSTEM.CONST>  (2) 
0

>  <SCORE.SYSTEM.DIHEDRAL>  (2) 
0

>  <SCORE.SYSTEM.norm>  (2) 
0

>  <SCORE.heavy>  (2) 
28

>  <SCORE.norm>  (2) 
-0.534736

>  <SMILES>  (2) 
CCn1nnnc1-c1cccc(NC(=O)NCCc2nc3ccccc3[nH]2)c1

>  <Cycle>  (2) 
228

>  <MolWeight>  (2) 
376.424000

>  <LogP>  (2) 
2.600500

>  <QED>  (2) 
0.478609

>  <SAS>  (2) 
2.340979

$$$$
design_4
     RDKit          3D

 45 47  0  0  0  0  0  0  0  0999 V2000
  -19.2766    1.9112    1.4835 C   0  0  0  0  0  0  0  0  0  0  0  0
  -18.0586    1.2360    0.9128 C   0  0  0  0  0  0  0  0  0  0  0  0
  -18.2495   -0.2236    0.9809 N   0  0  0  0  0  0  0  0  0  0  0  0
  -17.1222   -1.0221    1.2172 C   0  0  0  0  0  0  0  0  0  0  0  0
  -16.0001   -0.4859    1.3623 O   0  0  0  0  0  0  0  0  0  0  0  0
  -17.2375   -2.4712    1.2968 C   0  0  0  0  0  0  0  0  0  0  0  0
  -16.4010   -3.2509    2.0606 C   0  0  0  0  0  0  0  0  0  0  0  0
  -16.5809   -4.6181    2.0785 C   0  0  0  0  0  0  0  0  0  0  0  0
  -17.5910   -5.2181    1.3392 C   0  0  0  0  0  0  0  0  0  0  0  0
  -18.4451   -4.4662    0.5647 C   0  0  0  0  0  0  0  0  0  0  0  0
  -19.5404   -5.0378   -0.2464 C   0  0  0  0  0  0  0  0  0  0  0  0
  -19.0831   -5.1143   -1.6209 N   0  0  0  0  0  0  0  0  0  0  0  0
  -18.7311   -6.4742   -1.9853 C   0  0  0  0  0  0  0  0  0  0  0  0
  -17.7256   -6.5228   -3.0562 C   0  0  0  0  0  0  0  0  0  0  0  0
  -16.6952   -7.3868   -3.0260 N   0  0  0  0  0  0  0  0  0  0  0  0
  -15.7901   -7.4016   -4.0280 C   0  0  0  0  0  0  0  0  0  0  0  0
  -14.7328   -8.3028   -3.9769 C   0  0  0  0  0  0  0  0  0  0  0  0
  -13.8248   -8.2903   -5.0196 C   0  0  0  0  0  0  0  0  0  0  0  0
  -13.9523   -7.4159   -6.0841 C   0  0  0  0  0  0  0  0  0  0  0  0
  -14.9986   -6.5395   -6.1133 C   0  0  0  0  0  0  0  0  0  0  0  0
  -15.9283   -6.5209   -5.0890 C   0  0  0  0  0  0  0  0  0  0  0  0
  -16.9774   -5.6366   -5.1259 C   0  0  0  0  0  0  0  0  0  0  0  0
  -17.0892   -4.8431   -6.0963 O   0  0  0  0  0  0  0  0  0  0  0  0
  -17.8575   -5.6628   -4.0957 N   0  0  0  0  0  0  0  0  0  0  0  0
  -18.2469   -3.1128    0.5631 C   0  0  0  0  0  0  0  0  0  0  0  0
  -20.1137    1.2131    1.4794 H   0  0  0  0  0  0  0  0  0  0  0  0
  -19.0721    2.2264    2.5067 H   0  0  0  0  0  0  0  0  0  0  0  0
  -19.5274    2.7820    0.8777 H   0  0  0  0  0  0  0  0  0  0  0  0
  -17.1753    1.5210    1.4843 H   0  0  0  0  0  0  0  0  0  0  0  0
  -17.9224    1.5404   -0.1249 H   0  0  0  0  0  0  0  0  0  0  0  0
  -19.1639   -0.6356    0.8611 H   0  0  0  0  0  0  0  0  0  0  0  0
  -15.6037   -2.7929    2.6460 H   0  0  0  0  0  0  0  0  0  0  0  0
  -15.9189   -5.2379    2.6832 H   0  0  0  0  0  0  0  0  0  0  0  0
  -17.7096   -6.3011    1.3725 H   0  0  0  0  0  0  0  0  0  0  0  0
  -20.4307   -4.4129   -0.1766 H   0  0  0  0  0  0  0  0  0  0  0  0
  -19.7908   -6.0343    0.1175 H   0  0  0  0  0  0  0  0  0  0  0  0
  -19.8191   -4.7895   -2.2316 H   0  0  0  0  0  0  0  0  0  0  0  0
  -19.6327   -6.9644   -2.3526 H   0  0  0  0  0  0  0  0  0  0  0  0
  -18.3329   -6.9813   -1.1065 H   0  0  0  0  0  0  0  0  0  0  0  0
  -14.6233   -8.9960   -3.1429 H   0  0  0  0  0  0  0  0  0  0  0  0
  -12.9870   -8.9873   -5.0024 H   0  0  0  0  0  0  0  0  0  0  0  0
  -13.2226   -7.4267   -6.8937 H   0  0  0  0  0  0  0  0  0  0  0  0
  -15.1023   -5.8490   -6.9503 H   0  0  0  0  0  0  0  0  0  0  0  0
  -18.6371   -5.0207   -4.1026 H   0  0  0  0  0  0  0  0  0  0  0  0
  -18.9114   -2.4972   -0.0431 H   0  0  0  0  0  0  0  0  0  0  0  0
  1  2  1  0
  2  3  1  0
  3  4  1  0
  4  5  2  0
  4  6  1  0
  6  7  2  0
  7  8  1  0
  8  9  2  0
  9 10  1  0
 10 11  1  0
 11 12  1  0
 12 13  1  0
 13 14  1  0
 14 15  2  0
 15 16  1  0
 16 17  2  0
 17 18  1  0
 18 19  2  0
 19 20  1  0
 20 21  2  0
 21 22  1  0
 22 23  2  0
 22 24  1  0
 10 25  2  0
  6 25  1  0
 14 24  1  0
 16 21  1  0
  1 26  1  0
  1 27  1  0
  1 28  1  0
  2 29  1  0
  2 30  1  0
  3 31  1  0
  7 32  1  0
  8 33  1  0
  9 34  1  0
 11 35  1  0
 11 36  1  0
 12 37  1  0
 13 38  1  0
 13 39  1  0
 17 40  1  0
 18 41  1  0
 19 42  1  0
 20 43  1  0
 24 44  1  0
 25 45  1  0
M  END
>  <CHROM.1>  (3) 
-145.78732048,-150.50072502,-100.04386824,103.62672716,-153.27732802,137.76008317
-17.09621673,-4.41790035,-1.64771840,-2.75627770,-1.30836700,2.76180462

>  <Name>  (3) 
design_4

>  <RI>  (3) 
23619200.000000

>  <Rbt.Current_Directory>  (3) 
/pylon5/mc5pksp/smaltr/gateway_workdirs/PROCESS_93251df5-8da2-4fa9-b874-71853b29d1ad

>  <Rbt.Executable>  (3) 
rbdock ($Id: //depot/dev/client3/rdock/2013.1/src/exe/rbdock.cxx#4 $)

>  <Rbt.Library>  (3) 
libRbt.so (2013.1, Build901 2013/11/27)

>  <Rbt.Parameter_File>  (3) 
/home/smaltr/software/rDock_2013.1_src//data/scripts/dock.prm

>  <Rbt.Receptor>  (3) 
/pylon5/mc5pksp/smaltr/gateway_workdirs/PROCESS_93251df5-8da2-4fa9-b874-71853b29d1ad/output/SnD-Target-Sep02/cavity/pocket_docking.prm

>  <SCORE>  (3) 
-19.110900

>  <SCORE.INTER>  (3) 
-20.563400

>  <SCORE.INTER.CONST>  (3) 
1

>  <SCORE.INTER.POLAR>  (3) 
-1.616940

>  <SCORE.INTER.REPUL>  (3) 
0

>  <SCORE.INTER.ROT>  (3) 
6

>  <SCORE.INTER.VDW>  (3) 
-26.465800

>  <SCORE.INTER.norm>  (3) 
-0.822537

>  <SCORE.INTRA>  (3) 
1.452490

>  <SCORE.INTRA.DIHEDRAL>  (3) 
6.095080

>  <SCORE.INTRA.DIHEDRAL.0>  (3) 
2.644290

>  <SCORE.INTRA.POLAR>  (3) 
0.047540

>  <SCORE.INTRA.POLAR.0>  (3) 
-0.047540

>  <SCORE.INTRA.REPUL>  (3) 
0

>  <SCORE.INTRA.REPUL.0>  (3) 
0

>  <SCORE.INTRA.VDW>  (3) 
-1.756680

>  <SCORE.INTRA.VDW.0>  (3) 
0.178872

>  <SCORE.INTRA.norm>  (3) 
0.058100

>  <SCORE.RESTR>  (3) 
0

>  <SCORE.RESTR.CAVITY>  (3) 
0

>  <SCORE.RESTR.norm>  (3) 
0

>  <SCORE.SYSTEM>  (3) 
0

>  <SCORE.SYSTEM.CONST>  (3) 
0

>  <SCORE.SYSTEM.DIHEDRAL>  (3) 
0

>  <SCORE.SYSTEM.norm>  (3) 
0

>  <SCORE.heavy>  (3) 
25

>  <SCORE.norm>  (3) 
-0.764437

>  <SMILES>  (3) 
CCNC(=O)c1cccc(CNCc2nc3ccccc3c(=O)[nH]2)c1

>  <Cycle>  (3) 
228

>  <MolWeight>  (3) 
336.395000

>  <LogP>  (3) 
1.962600

>  <QED>  (3) 
0.642134

>  <SAS>  (3) 
2.124647

$$$$
design_8
     RDKit          3D

 44 46  0  0  0  0  0  0  0  0999 V2000
  -14.3440   -9.8141   -5.8947 C   0  0  0  0  0  0  0  0  0  0  0  0
  -15.0916   -8.5589   -5.6025 C   0  0  0  0  0  0  0  0  0  0  0  0
  -15.4554   -7.7088   -6.6142 C   0  0  0  0  0  0  0  0  0  0  0  0
  -16.1419   -6.5683   -6.2866 C   0  0  0  0  0  0  0  0  0  0  0  0
  -16.4612   -6.2768   -4.9824 C   0  0  0  0  0  0  0  0  0  0  0  0
  -16.1048   -7.1249   -3.9180 C   0  0  0  0  0  0  0  0  0  0  0  0
  -16.4659   -6.7645   -2.6085 N   0  0  0  0  0  0  0  0  0  0  0  0
  -17.5479   -5.9717   -2.2413 C   0  0  0  0  0  0  0  0  0  0  0  0
  -18.3349   -5.4837   -3.0628 O   0  0  0  0  0  0  0  0  0  0  0  0
  -17.7934   -5.6815   -0.8035 C   0  0  0  0  0  0  0  0  0  0  0  0
  -16.5856   -5.4635    0.0162 C   0  0  0  0  0  0  0  0  0  0  0  0
  -16.7486   -4.8801    1.3696 C   0  0  0  0  0  0  0  0  0  0  0  0
  -17.2993   -3.5543    1.4110 N   0  0  0  0  0  0  0  0  0  0  0  0
  -18.5541   -3.3000    1.7754 C   0  0  0  0  0  0  0  0  0  0  0  0
  -19.3262   -4.2234    2.0833 O   0  0  0  0  0  0  0  0  0  0  0  0
  -19.0689   -2.0429    1.8333 N   0  0  0  0  0  0  0  0  0  0  0  0
  -18.2598   -1.0219    1.5033 C   0  0  0  0  0  0  0  0  0  0  0  0
  -18.7007    0.2894    1.5339 C   0  0  0  0  0  0  0  0  0  0  0  0
  -17.8508    1.3181    1.1905 C   0  0  0  0  0  0  0  0  0  0  0  0
  -16.5444    1.1060    0.8061 C   0  0  0  0  0  0  0  0  0  0  0  0
  -16.0926   -0.1941    0.7712 C   0  0  0  0  0  0  0  0  0  0  0  0
  -16.9534   -1.2371    1.1191 C   0  0  0  0  0  0  0  0  0  0  0  0
  -16.4785   -2.5075    1.0750 C   0  0  0  0  0  0  0  0  0  0  0  0
  -15.2797   -2.7761    0.7281 O   0  0  0  0  0  0  0  0  0  0  0  0
  -15.4196   -8.2574   -4.2724 C   0  0  0  0  0  0  0  0  0  0  0  0
  -13.3809   -9.7898   -5.3848 H   0  0  0  0  0  0  0  0  0  0  0  0
  -14.9192  -10.6705   -5.5429 H   0  0  0  0  0  0  0  0  0  0  0  0
  -14.1834   -9.9002   -6.9694 H   0  0  0  0  0  0  0  0  0  0  0  0
  -15.2057   -7.9335   -7.6511 H   0  0  0  0  0  0  0  0  0  0  0  0
  -16.4404   -5.8790   -7.0765 H   0  0  0  0  0  0  0  0  0  0  0  0
  -17.0081   -5.3592   -4.7655 H   0  0  0  0  0  0  0  0  0  0  0  0
  -15.8832   -7.1152   -1.8618 H   0  0  0  0  0  0  0  0  0  0  0  0
  -18.2739   -6.5713   -0.3968 H   0  0  0  0  0  0  0  0  0  0  0  0
  -18.4085   -4.7837   -0.7417 H   0  0  0  0  0  0  0  0  0  0  0  0
  -16.0208   -4.7108   -0.5338 H   0  0  0  0  0  0  0  0  0  0  0  0
  -16.0989   -6.4312    0.1380 H   0  0  0  0  0  0  0  0  0  0  0  0
  -15.7430   -4.7983    1.7821 H   0  0  0  0  0  0  0  0  0  0  0  0
  -17.4061   -5.5352    1.9411 H   0  0  0  0  0  0  0  0  0  0  0  0
  -20.0256   -1.8821    2.1144 H   0  0  0  0  0  0  0  0  0  0  0  0
  -19.7259    0.5097    1.8313 H   0  0  0  0  0  0  0  0  0  0  0  0
  -18.2268    2.3407    1.2242 H   0  0  0  0  0  0  0  0  0  0  0  0
  -15.8923    1.9377    0.5393 H   0  0  0  0  0  0  0  0  0  0  0  0
  -15.0663   -0.4085    0.4730 H   0  0  0  0  0  0  0  0  0  0  0  0
  -15.1171   -8.9522   -3.4889 H   0  0  0  0  0  0  0  0  0  0  0  0
  1  2  1  0
  2  3  2  0
  3  4  1  0
  4  5  2  0
  5  6  1  0
  6  7  1  0
  7  8  1  0
  8  9  2  0
  8 10  1  0
 10 11  1  0
 11 12  1  0
 12 13  1  0
 13 14  1  0
 14 15  2  0
 14 16  1  0
 16 17  1  0
 17 18  2  0
 18 19  1  0
 19 20  2  0
 20 21  1  0
 21 22  2  0
 22 23  1  0
 23 24  2  0
  6 25  2  0
  2 25  1  0
 13 23  1  0
 17 22  1  0
  1 26  1  0
  1 27  1  0
  1 28  1  0
  3 29  1  0
  4 30  1  0
  5 31  1  0
  7 32  1  0
 10 33  1  0
 10 34  1  0
 11 35  1  0
 11 36  1  0
 12 37  1  0
 12 38  1  0
 16 39  1  0
 18 40  1  0
 19 41  1  0
 20 42  1  0
 21 43  1  0
 25 44  1  0
M  END
>  <CHROM.1>  (4) 
26.90528258,37.87719743,166.66736792,-62.50261021,104.80548779,-16.93186781
-4.30841246,-1.13594729,-1.09322767,1.10604832,0.33796808

>  <Name>  (4) 
design_8

>  <RI>  (4) 
40019600.000000

>  <Rbt.Current_Directory>  (4) 
/pylon5/mc5pksp/smaltr/gateway_workdirs/PROCESS_93251df5-8da2-4fa9-b874-71853b29d1ad

>  <Rbt.Executable>  (4) 
rbdock ($Id: //depot/dev/client3/rdock/2013.1/src/exe/rbdock.cxx#4 $)

>  <Rbt.Library>  (4) 
libRbt.so (2013.1, Build901 2013/11/27)

>  <Rbt.Parameter_File>  (4) 
/home/smaltr/software/rDock_2013.1_src//data/scripts/dock.prm

>  <Rbt.Receptor>  (4) 
/pylon5/mc5pksp/smaltr/gateway_workdirs/PROCESS_93251df5-8da2-4fa9-b874-71853b29d1ad/output/SnD-Target-Sep02/cavity/pocket_docking.prm

>  <SCORE>  (4) 
-18.583100

>  <SCORE.INTER>  (4) 
-20.142300

>  <SCORE.INTER.CONST>  (4) 
1

>  <SCORE.INTER.POLAR>  (4) 
-1.412400

>  <SCORE.INTER.REPUL>  (4) 
0

>  <SCORE.INTER.ROT>  (4) 
5

>  <SCORE.INTER.VDW>  (4) 
-25.740100

>  <SCORE.INTER.norm>  (4) 
-0.805690

>  <SCORE.INTRA>  (4) 
1.559130

>  <SCORE.INTRA.DIHEDRAL>  (4) 
3.626300

>  <SCORE.INTRA.DIHEDRAL.0>  (4) 
3.606730

>  <SCORE.INTRA.POLAR>  (4) 
0

>  <SCORE.INTRA.POLAR.0>  (4) 
0

>  <SCORE.INTRA.REPUL>  (4) 
0

>  <SCORE.INTRA.REPUL.0>  (4) 
0

>  <SCORE.INTRA.VDW>  (4) 
-0.254023

>  <SCORE.INTRA.VDW.0>  (4) 
-0.668565

>  <SCORE.INTRA.norm>  (4) 
0.062365

>  <SCORE.RESTR>  (4) 
0

>  <SCORE.RESTR.CAVITY>  (4) 
0

>  <SCORE.RESTR.norm>  (4) 
0

>  <SCORE.SYSTEM>  (4) 
0

>  <SCORE.SYSTEM.CONST>  (4) 
0

>  <SCORE.SYSTEM.DIHEDRAL>  (4) 
0

>  <SCORE.SYSTEM.norm>  (4) 
0

>  <SCORE.heavy>  (4) 
25

>  <SCORE.norm>  (4) 
-0.743325

>  <SMILES>  (4) 
Cc1cccc(NC(=O)CCCn2c(=O)[nH]c3ccccc3c2=O)c1

>  <Cycle>  (4) 
228

>  <MolWeight>  (4) 
337.379000

>  <LogP>  (4) 
2.417120

>  <QED>  (4) 
0.749761

>  <SAS>  (4) 
1.923168

$$$$
design_5
     RDKit          3D

 47 49  0  0  0  0  0  0  0  0999 V2000
  -14.4367  -10.3073   -3.8299 C   0  0  0  0  0  0  0  0  0  0  0  0
  -13.4267   -9.2153   -3.4792 C   0  0  0  0  0  0  0  0  0  0  0  0
  -12.9397   -8.5316   -4.6306 N   0  0  0  0  0  0  0  0  0  0  0  0
  -11.7244   -8.7691   -5.1757 N   0  0  0  0  0  0  0  0  0  0  0  0
  -11.5322   -7.9795   -6.2088 N   0  0  0  0  0  0  0  0  0  0  0  0
  -12.6053   -7.2377   -6.3369 N   0  0  0  0  0  0  0  0  0  0  0  0
  -13.5062   -7.5808   -5.3400 C   0  0  0  0  0  0  0  0  0  0  0  0
  -14.7808   -6.8978   -5.2230 C   0  0  0  0  0  0  0  0  0  0  0  0
  -15.4762   -6.3429   -6.2601 C   0  0  0  0  0  0  0  0  0  0  0  0
  -16.7332   -5.7288   -6.0896 C   0  0  0  0  0  0  0  0  0  0  0  0
  -17.2583   -5.6977   -4.8256 C   0  0  0  0  0  0  0  0  0  0  0  0
  -16.6113   -6.2367   -3.7332 C   0  0  0  0  0  0  0  0  0  0  0  0
  -17.1840   -6.1895   -2.3992 C   0  0  0  0  0  0  0  0  0  0  0  0
  -16.5988   -6.7987   -1.4815 O   0  0  0  0  0  0  0  0  0  0  0  0
  -18.3569   -5.4810   -2.1510 N   0  0  0  0  0  0  0  0  0  0  0  0
  -18.9970   -5.3850   -0.8550 C   0  0  0  0  0  0  0  0  0  0  0  0
  -18.1516   -4.5489    0.0246 C   0  0  0  0  0  0  0  0  0  0  0  0
  -17.4216   -5.1476    1.0347 C   0  0  0  0  0  0  0  0  0  0  0  0
  -16.6487   -4.3531    1.8414 C   0  0  0  0  0  0  0  0  0  0  0  0
  -16.5685   -2.9765    1.6869 C   0  0  0  0  0  0  0  0  0  0  0  0
  -17.2827   -2.3623    0.6928 C   0  0  0  0  0  0  0  0  0  0  0  0
  -17.3041   -1.0011    0.3884 N   0  0  0  0  0  0  0  0  0  0  0  0
  -17.7299   -0.0113    1.2774 C   0  0  0  0  0  0  0  0  0  0  0  0
  -17.7156    1.4093    0.8427 C   0  0  0  0  0  0  0  0  0  0  0  0
  -18.1232   -0.2539    2.4215 O   0  0  0  0  0  0  0  0  0  0  0  0
  -18.0707   -3.1937   -0.1256 C   0  0  0  0  0  0  0  0  0  0  0  0
  -15.3889   -6.8220   -3.9647 C   0  0  0  0  0  0  0  0  0  0  0  0
  -15.3333   -9.8510   -4.2494 H   0  0  0  0  0  0  0  0  0  0  0  0
  -13.9990  -10.9864   -4.5616 H   0  0  0  0  0  0  0  0  0  0  0  0
  -14.6995  -10.8626   -2.9296 H   0  0  0  0  0  0  0  0  0  0  0  0
  -12.5760   -9.6948   -2.9949 H   0  0  0  0  0  0  0  0  0  0  0  0
  -13.9073   -8.4925   -2.8199 H   0  0  0  0  0  0  0  0  0  0  0  0
  -15.0414   -6.3765   -7.2591 H   0  0  0  0  0  0  0  0  0  0  0  0
  -17.2682   -5.2941   -6.9339 H   0  0  0  0  0  0  0  0  0  0  0  0
  -18.2298   -5.2266   -4.6761 H   0  0  0  0  0  0  0  0  0  0  0  0
  -18.7906   -5.0017   -2.9270 H   0  0  0  0  0  0  0  0  0  0  0  0
  -19.1169   -6.3786   -0.4232 H   0  0  0  0  0  0  0  0  0  0  0  0
  -19.9809   -4.9285   -0.9629 H   0  0  0  0  0  0  0  0  0  0  0  0
  -17.4597   -6.2264    1.1861 H   0  0  0  0  0  0  0  0  0  0  0  0
  -16.0724   -4.8230    2.6384 H   0  0  0  0  0  0  0  0  0  0  0  0
  -15.9398   -2.3865    2.3538 H   0  0  0  0  0  0  0  0  0  0  0  0
  -16.9934   -0.7143   -0.5288 H   0  0  0  0  0  0  0  0  0  0  0  0
  -16.8044    1.8889    1.2002 H   0  0  0  0  0  0  0  0  0  0  0  0
  -17.7477    1.4571   -0.2458 H   0  0  0  0  0  0  0  0  0  0  0  0
  -18.5828    1.9249    1.2554 H   0  0  0  0  0  0  0  0  0  0  0  0
  -18.6491   -2.7296   -0.9245 H   0  0  0  0  0  0  0  0  0  0  0  0
  -14.8603   -7.2541   -3.1150 H   0  0  0  0  0  0  0  0  0  0  0  0
  1  2  1  0
  2  3  1  0
  3  4  1  0
  4  5  2  0
  5  6  1  0
  6  7  2  0
  7  8  1  0
  8  9  2  0
  9 10  1  0
 10 11  2  0
 11 12  1  0
 12 13  1  0
 13 14  2  0
 13 15  1  0
 15 16  1  0
 16 17  1  0
 17 18  2  0
 18 19  1  0
 19 20  2  0
 20 21  1  0
 21 22  1  0
 22 23  1  0
 23 24  1  0
 23 25  2  0
 21 26  2  0
 12 27  2  0
  3  7  1  0
  8 27  1  0
 17 26  1  0
  1 28  1  0
  1 29  1  0
  1 30  1  0
  2 31  1  0
  2 32  1  0
  9 33  1  0
 10 34  1  0
 11 35  1  0
 15 36  1  0
 16 37  1  0
 16 38  1  0
 18 39  1  0
 19 40  1  0
 20 41  1  0
 22 42  1  0
 24 43  1  0
 24 44  1  0
 24 45  1  0
 26 46  1  0
 27 47  1  0
M  END
>  <CHROM.1>  (5) 
-102.38250819,-152.21691716,173.82874654,70.04577620,-106.58662457,-60.89933643
-16.01507382,-5.30683905,-2.26668205,0.46565807,-1.08168991,2.85957035

>  <Name>  (5) 
design_5

>  <RI>  (5) 
14243500.000000

>  <Rbt.Current_Directory>  (5) 
/pylon5/mc5pksp/smaltr/gateway_workdirs/PROCESS_93251df5-8da2-4fa9-b874-71853b29d1ad

>  <Rbt.Executable>  (5) 
rbdock ($Id: //depot/dev/client3/rdock/2013.1/src/exe/rbdock.cxx#4 $)

>  <Rbt.Library>  (5) 
libRbt.so (2013.1, Build901 2013/11/27)

>  <Rbt.Parameter_File>  (5) 
/home/smaltr/software/rDock_2013.1_src//data/scripts/dock.prm

>  <Rbt.Receptor>  (5) 
/pylon5/mc5pksp/smaltr/gateway_workdirs/PROCESS_93251df5-8da2-4fa9-b874-71853b29d1ad/output/SnD-Target-Sep02/cavity/pocket_docking.prm

>  <SCORE>  (5) 
-15.674100

>  <SCORE.INTER>  (5) 
-20.025600

>  <SCORE.INTER.CONST>  (5) 
1

>  <SCORE.INTER.POLAR>  (5) 
-1.687890

>  <SCORE.INTER.REPUL>  (5) 
0

>  <SCORE.INTER.ROT>  (5) 
6

>  <SCORE.INTER.VDW>  (5) 
-25.686800

>  <SCORE.INTER.norm>  (5) 
-0.741690

>  <SCORE.INTRA>  (5) 
4.351540

>  <SCORE.INTRA.DIHEDRAL>  (5) 
10.302700

>  <SCORE.INTRA.DIHEDRAL.0>  (5) 
6.485490

>  <SCORE.INTRA.POLAR>  (5) 
0

>  <SCORE.INTRA.POLAR.0>  (5) 
0

>  <SCORE.INTRA.REPUL>  (5) 
0

>  <SCORE.INTRA.REPUL.0>  (5) 
0

>  <SCORE.INTRA.VDW>  (5) 
-0.799816

>  <SCORE.INTRA.VDW.0>  (5) 
-1.971680

>  <SCORE.INTRA.norm>  (5) 
0.161168

>  <SCORE.RESTR>  (5) 
0

>  <SCORE.RESTR.CAVITY>  (5) 
0

>  <SCORE.RESTR.norm>  (5) 
0

>  <SCORE.SYSTEM>  (5) 
0

>  <SCORE.SYSTEM.CONST>  (5) 
0

>  <SCORE.SYSTEM.DIHEDRAL>  (5) 
0

>  <SCORE.SYSTEM.norm>  (5) 
0

>  <SCORE.heavy>  (5) 
27

>  <SCORE.norm>  (5) 
-0.580522

>  <SMILES>  (5) 
CCn1nnnc1-c1cccc(C(=O)NCc2cccc(NC(C)=O)c2)c1

>  <Cycle>  (5) 
228

>  <MolWeight>  (5) 
364.409000

>  <LogP>  (5) 
2.248400

>  <QED>  (5) 
0.698403

>  <SAS>  (5) 
2.107474

$$$$
design_0
     RDKit          3D

 43 45  0  0  0  0  0  0  0  0999 V2000
  -22.1516   -8.0657    0.8587 C   0  0  0  0  0  0  0  0  0  0  0  0
  -22.1155   -6.8694   -0.0529 C   0  0  0  0  0  0  0  0  0  0  0  0
  -22.1406   -5.6324    0.6576 N   0  0  0  0  0  0  0  0  0  0  0  0
  -23.3222   -5.1180    1.0854 N   0  0  0  0  0  0  0  0  0  0  0  0
  -23.1120   -3.9821    1.6836 N   0  0  0  0  0  0  0  0  0  0  0  0
  -21.8288   -3.7428    1.6576 N   0  0  0  0  0  0  0  0  0  0  0  0
  -21.2073   -4.7858    1.0093 C   0  0  0  0  0  0  0  0  0  0  0  0
  -19.7788   -4.8062    0.7933 C   0  0  0  0  0  0  0  0  0  0  0  0
  -18.9443   -4.0163    1.5979 C   0  0  0  0  0  0  0  0  0  0  0  0
  -17.5902   -4.0232    1.4494 C   0  0  0  0  0  0  0  0  0  0  0  0
  -16.9722   -4.8058    0.5020 C   0  0  0  0  0  0  0  0  0  0  0  0
  -17.7390   -5.5990   -0.3126 C   0  0  0  0  0  0  0  0  0  0  0  0
  -17.2078   -6.4263   -1.3205 N   0  0  0  0  0  0  0  0  0  0  0  0
  -15.8531   -6.5821   -1.6539 C   0  0  0  0  0  0  0  0  0  0  0  0
  -14.9365   -5.9819   -1.0758 O   0  0  0  0  0  0  0  0  0  0  0  0
  -15.4702   -7.5106   -2.7555 C   0  0  0  0  0  0  0  0  0  0  0  0
  -15.7651   -6.9657   -4.0851 C   0  0  0  0  0  0  0  0  0  0  0  0
  -16.7760   -6.0324   -4.2619 C   0  0  0  0  0  0  0  0  0  0  0  0
  -17.0602   -5.5123   -5.5074 C   0  0  0  0  0  0  0  0  0  0  0  0
  -16.3005   -5.9557   -6.5706 C   0  0  0  0  0  0  0  0  0  0  0  0
  -15.2908   -6.8846   -6.4100 C   0  0  0  0  0  0  0  0  0  0  0  0
  -15.0081   -7.4045   -5.1601 C   0  0  0  0  0  0  0  0  0  0  0  0
  -13.9417   -8.3976   -4.9320 C   0  0  0  0  0  0  0  0  0  0  0  0
  -19.1343   -5.5682   -0.1322 C   0  0  0  0  0  0  0  0  0  0  0  0
  -23.1223   -8.1168    1.3519 H   0  0  0  0  0  0  0  0  0  0  0  0
  -21.9930   -8.9727    0.2753 H   0  0  0  0  0  0  0  0  0  0  0  0
  -21.3673   -7.9745    1.6101 H   0  0  0  0  0  0  0  0  0  0  0  0
  -23.0073   -6.9066   -0.6785 H   0  0  0  0  0  0  0  0  0  0  0  0
  -21.2034   -6.9116   -0.6481 H   0  0  0  0  0  0  0  0  0  0  0  0
  -19.3911   -3.3803    2.3620 H   0  0  0  0  0  0  0  0  0  0  0  0
  -16.9813   -3.3929    2.0975 H   0  0  0  0  0  0  0  0  0  0  0  0
  -15.8870   -4.7957    0.4000 H   0  0  0  0  0  0  0  0  0  0  0  0
  -17.8709   -6.9640   -1.8602 H   0  0  0  0  0  0  0  0  0  0  0  0
  -16.0571   -8.4213   -2.6363 H   0  0  0  0  0  0  0  0  0  0  0  0
  -14.4005   -7.7091   -2.6889 H   0  0  0  0  0  0  0  0  0  0  0  0
  -17.3569   -5.7038   -3.4001 H   0  0  0  0  0  0  0  0  0  0  0  0
  -17.8546   -4.7790   -5.6465 H   0  0  0  0  0  0  0  0  0  0  0  0
  -16.5031   -5.5614   -7.5664 H   0  0  0  0  0  0  0  0  0  0  0  0
  -14.7126   -7.2102   -7.2748 H   0  0  0  0  0  0  0  0  0  0  0  0
  -13.0718   -7.9030   -4.4999 H   0  0  0  0  0  0  0  0  0  0  0  0
  -14.3001   -9.1655   -4.2465 H   0  0  0  0  0  0  0  0  0  0  0  0
  -13.6637   -8.8574   -5.8804 H   0  0  0  0  0  0  0  0  0  0  0  0
  -19.7424   -6.1997   -0.7799 H   0  0  0  0  0  0  0  0  0  0  0  0
  1  2  1  0
  2  3  1  0
  3  4  1  0
  4  5  2  0
  5  6  1  0
  6  7  2  0
  7  8  1  0
  8  9  2  0
  9 10  1  0
 10 11  2  0
 11 12  1  0
 12 13  1  0
 13 14  1  0
 14 15  2  0
 14 16  1  0
 16 17  1  0
 17 18  2  0
 18 19  1  0
 19 20  2  0
 20 21  1  0
 21 22  2  0
 22 23  1  0
 12 24  2  0
  3  7  1  0
  8 24  1  0
 17 22  1  0
  1 25  1  0
  1 26  1  0
  1 27  1  0
  2 28  1  0
  2 29  1  0
  9 30  1  0
 10 31  1  0
 11 32  1  0
 13 33  1  0
 16 34  1  0
 16 35  1  0
 18 36  1  0
 19 37  1  0
 20 38  1  0
 21 39  1  0
 23 40  1  0
 23 41  1  0
 23 42  1  0
 24 43  1  0
M  END
>  <CHROM.1>  (6) 
-82.47700389,-160.56280652,0.18469452,74.79529170,-26.30661146,-18.34912369
-5.88734929,-1.34336050,2.37430369,0.07690764,1.19127423

>  <Name>  (6) 
design_0

>  <RI>  (6) 
12445400.000000

>  <Rbt.Current_Directory>  (6) 
/pylon5/mc5pksp/smaltr/gateway_workdirs/PROCESS_93251df5-8da2-4fa9-b874-71853b29d1ad

>  <Rbt.Executable>  (6) 
rbdock ($Id: //depot/dev/client3/rdock/2013.1/src/exe/rbdock.cxx#4 $)

>  <Rbt.Library>  (6) 
libRbt.so (2013.1, Build901 2013/11/27)

>  <Rbt.Parameter_File>  (6) 
/home/smaltr/software/rDock_2013.1_src//data/scripts/dock.prm

>  <Rbt.Receptor>  (6) 
/pylon5/mc5pksp/smaltr/gateway_workdirs/PROCESS_93251df5-8da2-4fa9-b874-71853b29d1ad/output/SnD-Target-Sep02/cavity/pocket_docking.prm

>  <SCORE>  (6) 
-19.693700

>  <SCORE.INTER>  (6) 
-19.878300

>  <SCORE.INTER.CONST>  (6) 
1

>  <SCORE.INTER.POLAR>  (6) 
-1.998350

>  <SCORE.INTER.REPUL>  (6) 
0

>  <SCORE.INTER.ROT>  (6) 
5

>  <SCORE.INTER.VDW>  (6) 
-23.483900

>  <SCORE.INTER.norm>  (6) 
-0.828262

>  <SCORE.INTRA>  (6) 
0.184616

>  <SCORE.INTRA.DIHEDRAL>  (6) 
0.686223

>  <SCORE.INTRA.DIHEDRAL.0>  (6) 
5.116130

>  <SCORE.INTRA.POLAR>  (6) 
0

>  <SCORE.INTRA.POLAR.0>  (6) 
0

>  <SCORE.INTRA.REPUL>  (6) 
0

>  <SCORE.INTRA.REPUL.0>  (6) 
0

>  <SCORE.INTRA.VDW>  (6) 
-0.158495

>  <SCORE.INTRA.VDW.0>  (6) 
-1.233420

>  <SCORE.INTRA.norm>  (6) 
0.007692

>  <SCORE.RESTR>  (6) 
0

>  <SCORE.RESTR.CAVITY>  (6) 
0

>  <SCORE.RESTR.norm>  (6) 
0

>  <SCORE.SYSTEM>  (6) 
0

>  <SCORE.SYSTEM.CONST>  (6) 
0

>  <SCORE.SYSTEM.DIHEDRAL>  (6) 
0

>  <SCORE.SYSTEM.norm>  (6) 
0

>  <SCORE.heavy>  (6) 
24

>  <SCORE.norm>  (6) 
-0.820569

>  <SMILES>  (6) 
CCn1nnnc1-c1cccc(NC(=O)Cc2ccccc2C)c1

>  <Cycle>  (6) 
228

>  <MolWeight>  (6) 
321.384000

>  <LogP>  (6) 
2.849620

>  <QED>  (6) 
0.784063

>  <SAS>  (6) 
2.055227

$$$$
design_10
     RDKit          3D

 43 45  0  0  0  0  0  0  0  0999 V2000
   -9.2400   -6.6781   -5.6467 C   0  0  0  0  0  0  0  0  0  0  0  0
  -10.1048   -7.7630   -5.0642 C   0  0  0  0  0  0  0  0  0  0  0  0
  -10.6308   -7.3563   -3.7722 N   0  0  0  0  0  0  0  0  0  0  0  0
   -9.8244   -7.0657   -2.7098 N   0  0  0  0  0  0  0  0  0  0  0  0
  -10.6201   -6.7056   -1.7399 N   0  0  0  0  0  0  0  0  0  0  0  0
  -11.8607   -6.7621   -2.1537 N   0  0  0  0  0  0  0  0  0  0  0  0
  -11.8956   -7.1814   -3.4656 C   0  0  0  0  0  0  0  0  0  0  0  0
  -13.1555   -7.2885   -4.1713 C   0  0  0  0  0  0  0  0  0  0  0  0
  -13.2828   -7.5892   -5.4990 C   0  0  0  0  0  0  0  0  0  0  0  0
  -14.5493   -7.6094   -6.1094 C   0  0  0  0  0  0  0  0  0  0  0  0
  -15.6865   -7.3278   -5.3814 C   0  0  0  0  0  0  0  0  0  0  0  0
  -15.5955   -7.0228   -4.0448 C   0  0  0  0  0  0  0  0  0  0  0  0
  -16.7974   -6.7096   -3.2446 C   0  0  0  0  0  0  0  0  0  0  0  0
  -17.9344   -6.9735   -3.7168 O   0  0  0  0  0  0  0  0  0  0  0  0
  -16.7085   -6.1244   -1.9683 N   0  0  0  0  0  0  0  0  0  0  0  0
  -17.8981   -5.8284   -1.2131 C   0  0  0  0  0  0  0  0  0  0  0  0
  -17.5076   -4.9830   -0.0668 C   0  0  0  0  0  0  0  0  0  0  0  0
  -16.6531   -5.4354    0.9114 C   0  0  0  0  0  0  0  0  0  0  0  0
  -16.3324   -4.5918    1.9602 C   0  0  0  0  0  0  0  0  0  0  0  0
  -16.8369   -3.3125    2.0635 C   0  0  0  0  0  0  0  0  0  0  0  0
  -17.7024   -2.8709    1.0611 C   0  0  0  0  0  0  0  0  0  0  0  0
  -18.2639   -1.4914    1.1462 C   0  0  0  0  0  0  0  0  0  0  0  0
  -18.0268   -3.7102    0.0098 C   0  0  0  0  0  0  0  0  0  0  0  0
  -14.3524   -7.0094   -3.4743 C   0  0  0  0  0  0  0  0  0  0  0  0
   -8.2815   -7.1008   -5.9479 H   0  0  0  0  0  0  0  0  0  0  0  0
   -9.7350   -6.2456   -6.5162 H   0  0  0  0  0  0  0  0  0  0  0  0
   -9.0755   -5.9028   -4.8984 H   0  0  0  0  0  0  0  0  0  0  0  0
   -9.5016   -8.6612   -4.9319 H   0  0  0  0  0  0  0  0  0  0  0  0
  -10.9339   -7.9646   -5.7424 H   0  0  0  0  0  0  0  0  0  0  0  0
  -12.3948   -7.8152   -6.0894 H   0  0  0  0  0  0  0  0  0  0  0  0
  -14.6333   -7.8502   -7.1692 H   0  0  0  0  0  0  0  0  0  0  0  0
  -16.6614   -7.3473   -5.8685 H   0  0  0  0  0  0  0  0  0  0  0  0
  -15.8019   -5.9100   -1.5782 H   0  0  0  0  0  0  0  0  0  0  0  0
  -18.3659   -6.7491   -0.8644 H   0  0  0  0  0  0  0  0  0  0  0  0
  -18.6134   -5.2963   -1.8403 H   0  0  0  0  0  0  0  0  0  0  0  0
  -16.2358   -6.4411    0.8613 H   0  0  0  0  0  0  0  0  0  0  0  0
  -15.6551   -4.9522    2.7344 H   0  0  0  0  0  0  0  0  0  0  0  0
  -16.5687   -2.6674    2.9002 H   0  0  0  0  0  0  0  0  0  0  0  0
  -19.2299   -1.5234    1.6502 H   0  0  0  0  0  0  0  0  0  0  0  0
  -17.5816   -0.8549    1.7097 H   0  0  0  0  0  0  0  0  0  0  0  0
  -18.3920   -1.0880    0.1417 H   0  0  0  0  0  0  0  0  0  0  0  0
  -18.7033   -3.3584   -0.7691 H   0  0  0  0  0  0  0  0  0  0  0  0
  -14.2805   -6.7679   -2.4138 H   0  0  0  0  0  0  0  0  0  0  0  0
  1  2  1  0
  2  3  1  0
  3  4  1  0
  4  5  2  0
  5  6  1  0
  6  7  2  0
  7  8  1  0
  8  9  2  0
  9 10  1  0
 10 11  2  0
 11 12  1  0
 12 13  1  0
 13 14  2  0
 13 15  1  0
 15 16  1  0
 16 17  1  0
 17 18  2  0
 18 19  1  0
 19 20  2  0
 20 21  1  0
 21 22  1  0
 21 23  2  0
 12 24  2  0
  3  7  1  0
  8 24  1  0
 17 23  1  0
  1 25  1  0
  1 26  1  0
  1 27  1  0
  2 28  1  0
  2 29  1  0
  9 30  1  0
 10 31  1  0
 11 32  1  0
 15 33  1  0
 16 34  1  0
 16 35  1  0
 18 36  1  0
 19 37  1  0
 20 38  1  0
 22 39  1  0
 22 40  1  0
 22 41  1  0
 23 42  1  0
 24 43  1  0
M  END
>  <CHROM.1>  (7) 
-61.21881374,-2.92414870,13.81509078,-168.53354661,-62.78859739,-14.60626922
-6.05811051,-2.36166533,-0.75171827,-0.07503907,1.05483303

>  <Name>  (7) 
design_10

>  <RI>  (7) 
37398200.000000

>  <Rbt.Current_Directory>  (7) 
/pylon5/mc5pksp/smaltr/gateway_workdirs/PROCESS_93251df5-8da2-4fa9-b874-71853b29d1ad

>  <Rbt.Executable>  (7) 
rbdock ($Id: //depot/dev/client3/rdock/2013.1/src/exe/rbdock.cxx#4 $)

>  <Rbt.Library>  (7) 
libRbt.so (2013.1, Build901 2013/11/27)

>  <Rbt.Parameter_File>  (7) 
/home/smaltr/software/rDock_2013.1_src//data/scripts/dock.prm

>  <Rbt.Receptor>  (7) 
/pylon5/mc5pksp/smaltr/gateway_workdirs/PROCESS_93251df5-8da2-4fa9-b874-71853b29d1ad/output/SnD-Target-Sep02/cavity/pocket_docking.prm

>  <SCORE>  (7) 
-18.959500

>  <SCORE.INTER>  (7) 
-19.705700

>  <SCORE.INTER.CONST>  (7) 
1

>  <SCORE.INTER.POLAR>  (7) 
-2.008240

>  <SCORE.INTER.REPUL>  (7) 
0

>  <SCORE.INTER.ROT>  (7) 
5

>  <SCORE.INTER.VDW>  (7) 
-23.277600

>  <SCORE.INTER.norm>  (7) 
-0.821069

>  <SCORE.INTRA>  (7) 
0.746124

>  <SCORE.INTRA.DIHEDRAL>  (7) 
-0.309032

>  <SCORE.INTRA.DIHEDRAL.0>  (7) 
5.396800

>  <SCORE.INTRA.POLAR>  (7) 
0

>  <SCORE.INTRA.POLAR.0>  (7) 
0

>  <SCORE.INTRA.REPUL>  (7) 
0

>  <SCORE.INTRA.REPUL.0>  (7) 
0

>  <SCORE.INTRA.VDW>  (7) 
0.900640

>  <SCORE.INTRA.VDW.0>  (7) 
-1.932270

>  <SCORE.INTRA.norm>  (7) 
0.031089

>  <SCORE.RESTR>  (7) 
0

>  <SCORE.RESTR.CAVITY>  (7) 
0

>  <SCORE.RESTR.norm>  (7) 
0

>  <SCORE.SYSTEM>  (7) 
0

>  <SCORE.SYSTEM.CONST>  (7) 
0

>  <SCORE.SYSTEM.DIHEDRAL>  (7) 
0

>  <SCORE.SYSTEM.norm>  (7) 
0

>  <SCORE.heavy>  (7) 
24

>  <SCORE.norm>  (7) 
-0.789980

>  <SMILES>  (7) 
CCn1nnnc1-c1cccc(C(=O)NCc2cccc(C)c2)c1

>  <Cycle>  (7) 
228

>  <MolWeight>  (7) 
321.384000

>  <LogP>  (7) 
2.598420

>  <QED>  (7) 
0.783778

>  <SAS>  (7) 
2.022282

$$$$
design_2
     RDKit          3D

 43 44  0  0  0  0  0  0  0  0999 V2000
  -17.2584    1.2936    0.9578 C   0  0  0  0  0  0  0  0  0  0  0  0
  -17.3021   -0.1742    1.0602 C   0  0  0  0  0  0  0  0  0  0  0  0
  -18.4853   -0.8019    1.3398 C   0  0  0  0  0  0  0  0  0  0  0  0
  -18.4810   -2.2070    1.4286 C   0  0  0  0  0  0  0  0  0  0  0  0
  -17.3474   -2.9617    1.2473 C   0  0  0  0  0  0  0  0  0  0  0  0
  -17.3581   -4.3631    1.3389 N   0  0  0  0  0  0  0  0  0  0  0  0
  -18.4355   -5.1617    1.7665 C   0  0  0  0  0  0  0  0  0  0  0  0
  -19.5126   -4.6639    2.1126 O   0  0  0  0  0  0  0  0  0  0  0  0
  -18.2169   -6.6536    1.7834 C   0  0  0  0  0  0  0  0  0  0  0  0
  -18.1475   -7.1444    0.3754 C   0  0  0  0  0  0  0  0  0  0  0  0
  -16.7397   -7.2049   -0.1003 C   0  0  0  0  0  0  0  0  0  0  0  0
  -16.6334   -7.2078   -1.5477 N   0  0  0  0  0  0  0  0  0  0  0  0
  -15.4904   -6.7912   -2.2592 C   0  0  0  0  0  0  0  0  0  0  0  0
  -14.4909   -6.3906   -1.6197 O   0  0  0  0  0  0  0  0  0  0  0  0
  -15.4769   -6.8287   -3.7369 C   0  0  0  0  0  0  0  0  0  0  0  0
  -14.3901   -7.3357   -4.4184 C   0  0  0  0  0  0  0  0  0  0  0  0
  -14.3888   -7.3654   -5.7973 C   0  0  0  0  0  0  0  0  0  0  0  0
  -15.4544   -6.8983   -6.5420 C   0  0  0  0  0  0  0  0  0  0  0  0
  -16.5419   -6.3910   -5.8622 C   0  0  0  0  0  0  0  0  0  0  0  0
  -16.5491   -6.3585   -4.4797 C   0  0  0  0  0  0  0  0  0  0  0  0
  -17.9159   -5.7208   -3.6162 Cl  0  0  0  0  0  0  0  0  0  0  0  0
  -16.1574   -2.2922    0.9637 C   0  0  0  0  0  0  0  0  0  0  0  0
  -15.0034   -3.0012    0.7754 O   0  0  0  0  0  0  0  0  0  0  0  0
  -16.1664   -0.9050    0.8771 C   0  0  0  0  0  0  0  0  0  0  0  0
  -16.3014    1.5994    0.5351 H   0  0  0  0  0  0  0  0  0  0  0  0
  -18.0666    1.6376    0.3123 H   0  0  0  0  0  0  0  0  0  0  0  0
  -17.3734    1.7312    1.9495 H   0  0  0  0  0  0  0  0  0  0  0  0
  -19.4024   -0.2320    1.4891 H   0  0  0  0  0  0  0  0  0  0  0  0
  -19.4177   -2.7182    1.6508 H   0  0  0  0  0  0  0  0  0  0  0  0
  -16.5111   -4.8443    1.0723 H   0  0  0  0  0  0  0  0  0  0  0  0
  -19.0388   -7.1427    2.3063 H   0  0  0  0  0  0  0  0  0  0  0  0
  -17.2839   -6.8823    2.2985 H   0  0  0  0  0  0  0  0  0  0  0  0
  -18.6987   -6.4518   -0.2606 H   0  0  0  0  0  0  0  0  0  0  0  0
  -18.5852   -8.1413    0.3229 H   0  0  0  0  0  0  0  0  0  0  0  0
  -16.3120   -8.1400    0.2612 H   0  0  0  0  0  0  0  0  0  0  0  0
  -16.2032   -6.3387    0.2870 H   0  0  0  0  0  0  0  0  0  0  0  0
  -17.4298   -7.5291   -2.0793 H   0  0  0  0  0  0  0  0  0  0  0  0
  -13.5301   -7.7139   -3.8657 H   0  0  0  0  0  0  0  0  0  0  0  0
  -13.5196   -7.7702   -6.3157 H   0  0  0  0  0  0  0  0  0  0  0  0
  -15.4363   -6.9296   -7.6314 H   0  0  0  0  0  0  0  0  0  0  0  0
  -17.4004   -6.0136   -6.4177 H   0  0  0  0  0  0  0  0  0  0  0  0
  -14.7455   -2.9544   -0.1481 H   0  0  0  0  0  0  0  0  0  0  0  0
  -15.2346   -0.3846    0.6555 H   0  0  0  0  0  0  0  0  0  0  0  0
  1  2  1  0
  2  3  2  0
  3  4  1  0
  4  5  2  0
  5  6  1  0
  6  7  1  0
  7  8  2  0
  7  9  1  0
  9 10  1  0
 10 11  1  0
 11 12  1  0
 12 13  1  0
 13 14  2  0
 13 15  1  0
 15 16  2  0
 16 17  1  0
 17 18  2  0
 18 19  1  0
 19 20  2  0
 20 21  1  0
  5 22  1  0
 22 23  1  0
 22 24  2  0
  2 24  1  0
 15 20  1  0
  1 25  1  0
  1 26  1  0
  1 27  1  0
  3 28  1  0
  4 29  1  0
  6 30  1  0
  9 31  1  0
  9 32  1  0
 10 33  1  0
 10 34  1  0
 11 35  1  0
 11 36  1  0
 12 37  1  0
 16 38  1  0
 17 39  1  0
 18 40  1  0
 19 41  1  0
 23 42  1  0
 24 43  1  0
M  END
>  <CHROM.1>  (8) 
-7.85494018,-70.51786892,93.79447857,-159.45420467,156.49061714,-134.70582506
-2.59576437,-16.82262164,-4.79801655,-1.09588681,-2.13605727,-1.13911128
-2.79822442

>  <Name>  (8) 
design_2

>  <RI>  (8) 
18134700.000000

>  <Rbt.Current_Directory>  (8) 
/pylon5/mc5pksp/smaltr/gateway_workdirs/PROCESS_93251df5-8da2-4fa9-b874-71853b29d1ad

>  <Rbt.Executable>  (8) 
rbdock ($Id: //depot/dev/client3/rdock/2013.1/src/exe/rbdock.cxx#4 $)

>  <Rbt.Library>  (8) 
libRbt.so (2013.1, Build901 2013/11/27)

>  <Rbt.Parameter_File>  (8) 
/home/smaltr/software/rDock_2013.1_src//data/scripts/dock.prm

>  <Rbt.Receptor>  (8) 
/pylon5/mc5pksp/smaltr/gateway_workdirs/PROCESS_93251df5-8da2-4fa9-b874-71853b29d1ad/output/SnD-Target-Sep02/cavity/pocket_docking.prm

>  <SCORE>  (8) 
-21.179000

>  <SCORE.INTER>  (8) 
-19.124800

>  <SCORE.INTER.CONST>  (8) 
1

>  <SCORE.INTER.POLAR>  (8) 
-1.342290

>  <SCORE.INTER.REPUL>  (8) 
0.027236

>  <SCORE.INTER.ROT>  (8) 
6

>  <SCORE.INTER.VDW>  (8) 
-26.097200

>  <SCORE.INTER.norm>  (8) 
-0.796868

>  <SCORE.INTRA>  (8) 
-2.054130

>  <SCORE.INTRA.DIHEDRAL>  (8) 
-1.438940

>  <SCORE.INTRA.DIHEDRAL.0>  (8) 
15.237700

>  <SCORE.INTRA.POLAR>  (8) 
0

>  <SCORE.INTRA.POLAR.0>  (8) 
0

>  <SCORE.INTRA.REPUL>  (8) 
0

>  <SCORE.INTRA.REPUL.0>  (8) 
0

>  <SCORE.INTRA.VDW>  (8) 
-1.334660

>  <SCORE.INTRA.VDW.0>  (8) 
0.589361

>  <SCORE.INTRA.norm>  (8) 
-0.085589

>  <SCORE.RESTR>  (8) 
0

>  <SCORE.RESTR.CAVITY>  (8) 
0

>  <SCORE.RESTR.norm>  (8) 
0

>  <SCORE.SYSTEM>  (8) 
0

>  <SCORE.SYSTEM.CONST>  (8) 
0

>  <SCORE.SYSTEM.DIHEDRAL>  (8) 
0

>  <SCORE.SYSTEM.norm>  (8) 
0

>  <SCORE.heavy>  (8) 
24

>  <SCORE.norm>  (8) 
-0.882457

>  <SMILES>  (8) 
Cc1ccc(NC(=O)CCCNC(=O)c2ccccc2Cl)c(O)c1

>  <Cycle>  (8) 
228

>  <MolWeight>  (8) 
346.814000

>  <LogP>  (8) 
3.502720

>  <QED>  (8) 
0.552985

>  <SAS>  (8) 
1.832285

$$$$
design_12
     RDKit          3D

 48 50  0  0  0  0  0  0  0  0999 V2000
  -15.6398   -6.4235   -0.3838 C   0  0  0  0  0  0  0  0  0  0  0  0
  -16.5118   -6.0794    0.7854 C   0  0  0  0  0  0  0  0  0  0  0  0
  -17.5642   -5.1456    0.4381 N   0  0  0  0  0  0  0  0  0  0  0  0
  -18.7789   -5.3736   -0.0907 C   0  0  0  0  0  0  0  0  0  0  0  0
  -19.2860   -6.7275   -0.4348 C   0  0  0  0  0  0  0  0  0  0  0  0
  -20.0232   -6.5864   -1.7640 C   0  0  0  0  0  0  0  0  0  0  0  0
  -19.1259   -5.9632   -2.7018 N   0  0  0  0  0  0  0  0  0  0  0  0
  -17.8822   -6.6604   -3.0259 C   0  0  0  0  0  0  0  0  0  0  0  0
  -17.6512   -7.7526   -2.4842 O   0  0  0  0  0  0  0  0  0  0  0  0
  -16.9929   -6.0694   -3.9386 N   0  0  0  0  0  0  0  0  0  0  0  0
  -15.7706   -6.6202   -4.3411 C   0  0  0  0  0  0  0  0  0  0  0  0
  -14.8860   -7.1491   -3.4529 C   0  0  0  0  0  0  0  0  0  0  0  0
  -13.6855   -7.6786   -3.9521 C   0  0  0  0  0  0  0  0  0  0  0  0
  -13.3867   -7.6766   -5.2860 C   0  0  0  0  0  0  0  0  0  0  0  0
  -12.1049   -8.2474   -5.7690 C   0  0  0  0  0  0  0  0  0  0  0  0
  -14.3053   -7.1333   -6.1525 C   0  0  0  0  0  0  0  0  0  0  0  0
  -15.4942   -6.6028   -5.7155 C   0  0  0  0  0  0  0  0  0  0  0  0
  -16.4900   -6.0160   -6.6373 C   0  0  0  0  0  0  0  0  0  0  0  0
  -19.4542   -4.2225   -0.2594 N   0  0  0  0  0  0  0  0  0  0  0  0
  -18.6697   -3.2202    0.1659 C   0  0  0  0  0  0  0  0  0  0  0  0
  -18.8298   -1.8445    0.2340 C   0  0  0  0  0  0  0  0  0  0  0  0
  -17.7773   -1.1106    0.7448 C   0  0  0  0  0  0  0  0  0  0  0  0
  -16.6005   -1.6845    1.1791 C   0  0  0  0  0  0  0  0  0  0  0  0
  -16.4928   -3.0223    1.0928 N   0  0  0  0  0  0  0  0  0  0  0  0
  -17.4936   -3.8020    0.5992 C   0  0  0  0  0  0  0  0  0  0  0  0
  -14.6667   -6.7582   -0.0245 H   0  0  0  0  0  0  0  0  0  0  0  0
  -16.1060   -7.2201   -0.9635 H   0  0  0  0  0  0  0  0  0  0  0  0
  -15.5109   -5.5430   -1.0132 H   0  0  0  0  0  0  0  0  0  0  0  0
  -15.8830   -5.6038    1.5380 H   0  0  0  0  0  0  0  0  0  0  0  0
  -16.9668   -6.9946    1.1641 H   0  0  0  0  0  0  0  0  0  0  0  0
  -19.9451   -7.1121    0.3436 H   0  0  0  0  0  0  0  0  0  0  0  0
  -18.4564   -7.4273   -0.5354 H   0  0  0  0  0  0  0  0  0  0  0  0
  -20.9215   -5.9820   -1.6382 H   0  0  0  0  0  0  0  0  0  0  0  0
  -20.3195   -7.5692   -2.1305 H   0  0  0  0  0  0  0  0  0  0  0  0
  -19.3486   -5.0724   -3.1226 H   0  0  0  0  0  0  0  0  0  0  0  0
  -17.2557   -5.1784   -4.3350 H   0  0  0  0  0  0  0  0  0  0  0  0
  -15.1031   -7.1613   -2.3848 H   0  0  0  0  0  0  0  0  0  0  0  0
  -12.9673   -8.1058   -3.2523 H   0  0  0  0  0  0  0  0  0  0  0  0
  -11.3261   -8.0690   -5.0275 H   0  0  0  0  0  0  0  0  0  0  0  0
  -12.2196   -9.3202   -5.9237 H   0  0  0  0  0  0  0  0  0  0  0  0
  -11.8262   -7.7719   -6.7094 H   0  0  0  0  0  0  0  0  0  0  0  0
  -14.0831   -7.1233   -7.2196 H   0  0  0  0  0  0  0  0  0  0  0  0
  -17.3568   -5.6795   -6.0685 H   0  0  0  0  0  0  0  0  0  0  0  0
  -16.0472   -5.1678   -7.1594 H   0  0  0  0  0  0  0  0  0  0  0  0
  -16.8016   -6.7675   -7.3627 H   0  0  0  0  0  0  0  0  0  0  0  0
  -19.7480   -1.3625   -0.1016 H   0  0  0  0  0  0  0  0  0  0  0  0
  -17.8813   -0.0274    0.8077 H   0  0  0  0  0  0  0  0  0  0  0  0
  -15.7882   -1.0764    1.5773 H   0  0  0  0  0  0  0  0  0  0  0  0
  1  2  1  0
  2  3  1  0
  3  4  1  0
  4  5  1  0
  5  6  1  0
  6  7  1  0
  7  8  1  0
  8  9  2  0
  8 10  1  0
 10 11  1  0
 11 12  2  0
 12 13  1  0
 13 14  2  0
 14 15  1  0
 14 16  1  0
 16 17  2  0
 17 18  1  0
  4 19  2  0
 19 20  1  0
 20 21  2  0
 21 22  1  0
 22 23  2  0
 23 24  1  0
 24 25  2  0
  3 25  1  0
 11 17  1  0
 20 25  1  0
  1 26  1  0
  1 27  1  0
  1 28  1  0
  2 29  1  0
  2 30  1  0
  5 31  1  0
  5 32  1  0
  6 33  1  0
  6 34  1  0
  7 35  1  0
 10 36  1  0
 12 37  1  0
 13 38  1  0
 15 39  1  0
 15 40  1  0
 15 41  1  0
 16 42  1  0
 18 43  1  0
 18 44  1  0
 18 45  1  0
 21 46  1  0
 22 47  1  0
 23 48  1  0
M  END
>  <CHROM.1>  (9) 
84.66297770,-139.45001790,53.55513214,61.20496006,-45.90330017,-16.84732967
-5.58835887,-2.06139892,-2.06357872,-0.19028781,-2.26804504

>  <Name>  (9) 
design_12

>  <RI>  (9) 
19109600.000000

>  <Rbt.Current_Directory>  (9) 
/pylon5/mc5pksp/smaltr/gateway_workdirs/PROCESS_93251df5-8da2-4fa9-b874-71853b29d1ad

>  <Rbt.Executable>  (9) 
rbdock ($Id: //depot/dev/client3/rdock/2013.1/src/exe/rbdock.cxx#4 $)

>  <Rbt.Library>  (9) 
libRbt.so (2013.1, Build901 2013/11/27)

>  <Rbt.Parameter_File>  (9) 
/home/smaltr/software/rDock_2013.1_src//data/scripts/dock.prm

>  <Rbt.Receptor>  (9) 
/pylon5/mc5pksp/smaltr/gateway_workdirs/PROCESS_93251df5-8da2-4fa9-b874-71853b29d1ad/output/SnD-Target-Sep02/cavity/pocket_docking.prm

>  <SCORE>  (9) 
-17.717000

>  <SCORE.INTER>  (9) 
-18.752000

>  <SCORE.INTER.CONST>  (9) 
1

>  <SCORE.INTER.POLAR>  (9) 
-1.019800

>  <SCORE.INTER.REPUL>  (9) 
0

>  <SCORE.INTER.ROT>  (9) 
5

>  <SCORE.INTER.VDW>  (9) 
-25.684700

>  <SCORE.INTER.norm>  (9) 
-0.750082

>  <SCORE.INTRA>  (9) 
1.035000

>  <SCORE.INTRA.DIHEDRAL>  (9) 
6.755890

>  <SCORE.INTRA.DIHEDRAL.0>  (9) 
4.948130

>  <SCORE.INTRA.POLAR>  (9) 
0.174437

>  <SCORE.INTRA.POLAR.0>  (9) 
-0.174437

>  <SCORE.INTRA.REPUL>  (9) 
0

>  <SCORE.INTRA.REPUL.0>  (9) 
0

>  <SCORE.INTRA.VDW>  (9) 
-2.936030

>  <SCORE.INTRA.VDW.0>  (9) 
1.840130

>  <SCORE.INTRA.norm>  (9) 
0.041400

>  <SCORE.RESTR>  (9) 
0

>  <SCORE.RESTR.CAVITY>  (9) 
0

>  <SCORE.RESTR.norm>  (9) 
0

>  <SCORE.SYSTEM>  (9) 
0

>  <SCORE.SYSTEM.CONST>  (9) 
0

>  <SCORE.SYSTEM.DIHEDRAL>  (9) 
0

>  <SCORE.SYSTEM.norm>  (9) 
0

>  <SCORE.heavy>  (9) 
25

>  <SCORE.norm>  (9) 
-0.708682

>  <SMILES>  (9) 
CCn1c(CCNC(=O)Nc2ccc(C)cc2C)nc2cccnc21

>  <Cycle>  (9) 
228

>  <MolWeight>  (9) 
337.427000

>  <LogP>  (9) 
3.432240

>  <QED>  (9) 
0.749047

>  <SAS>  (9) 
2.151540

$$$$
design_15
     RDKit          3D

 45 47  0  0  0  0  0  0  0  0999 V2000
  -23.6590   -7.1668   -0.6117 C   0  0  0  0  0  0  0  0  0  0  0  0
  -23.4165   -7.0165    0.8642 C   0  0  0  0  0  0  0  0  0  0  0  0
  -22.9821   -5.6514    1.1094 N   0  0  0  0  0  0  0  0  0  0  0  0
  -23.7208   -4.5656    1.1541 N   0  0  0  0  0  0  0  0  0  0  0  0
  -22.9733   -3.5226    1.3990 N   0  0  0  0  0  0  0  0  0  0  0  0
  -21.7389   -3.9496    1.5122 N   0  0  0  0  0  0  0  0  0  0  0  0
  -21.7146   -5.2785    1.3356 C   0  0  0  0  0  0  0  0  0  0  0  0
  -20.5961   -6.1603    1.3710 N   0  0  0  0  0  0  0  0  0  0  0  0
  -19.2559   -5.6671    1.5855 C   0  0  0  0  0  0  0  0  0  0  0  0
  -18.4105   -6.0106    0.4293 C   0  0  0  0  0  0  0  0  0  0  0  0
  -17.0642   -6.2307    0.6080 C   0  0  0  0  0  0  0  0  0  0  0  0
  -16.3074   -6.5535   -0.4926 C   0  0  0  0  0  0  0  0  0  0  0  0
  -16.8258   -6.6699   -1.7743 C   0  0  0  0  0  0  0  0  0  0  0  0
  -15.9667   -7.0272   -2.9161 C   0  0  0  0  0  0  0  0  0  0  0  0
  -16.5721   -7.4043   -3.9271 O   0  0  0  0  0  0  0  0  0  0  0  0
  -14.5639   -6.9230   -2.7927 N   0  0  0  0  0  0  0  0  0  0  0  0
  -13.5940   -7.2151   -3.7652 C   0  0  0  0  0  0  0  0  0  0  0  0
  -13.9382   -7.6163   -5.0205 C   0  0  0  0  0  0  0  0  0  0  0  0
  -12.9585   -7.9056   -5.9849 C   0  0  0  0  0  0  0  0  0  0  0  0
  -11.6330   -7.7963   -5.7027 C   0  0  0  0  0  0  0  0  0  0  0  0
  -11.2604   -7.3903   -4.4334 C   0  0  0  0  0  0  0  0  0  0  0  0
   -9.8260   -7.2616   -4.0950 C   0  0  0  0  0  0  0  0  0  0  0  0
  -12.2236   -7.1116   -3.5036 C   0  0  0  0  0  0  0  0  0  0  0  0
  -18.1682   -6.4485   -1.9393 C   0  0  0  0  0  0  0  0  0  0  0  0
  -18.9565   -6.1177   -0.8269 C   0  0  0  0  0  0  0  0  0  0  0  0
  -24.4064   -6.4410   -0.9323 H   0  0  0  0  0  0  0  0  0  0  0  0
  -22.7290   -6.9929   -1.1529 H   0  0  0  0  0  0  0  0  0  0  0  0
  -24.0187   -8.1743   -0.8206 H   0  0  0  0  0  0  0  0  0  0  0  0
  -22.6555   -7.7222    1.1973 H   0  0  0  0  0  0  0  0  0  0  0  0
  -24.3362   -7.2175    1.4136 H   0  0  0  0  0  0  0  0  0  0  0  0
  -20.7436   -7.1513    1.2434 H   0  0  0  0  0  0  0  0  0  0  0  0
  -18.8422   -6.1248    2.4841 H   0  0  0  0  0  0  0  0  0  0  0  0
  -19.2825   -4.5842    1.7070 H   0  0  0  0  0  0  0  0  0  0  0  0
  -16.6102   -6.1512    1.5958 H   0  0  0  0  0  0  0  0  0  0  0  0
  -15.2408   -6.7278   -0.3509 H   0  0  0  0  0  0  0  0  0  0  0  0
  -14.2176   -6.6006   -1.9004 H   0  0  0  0  0  0  0  0  0  0  0  0
  -14.9920   -7.7146   -5.2813 H   0  0  0  0  0  0  0  0  0  0  0  0
  -13.2675   -8.2244   -6.9804 H   0  0  0  0  0  0  0  0  0  0  0  0
  -10.8813   -8.0232   -6.4587 H   0  0  0  0  0  0  0  0  0  0  0  0
   -9.2872   -6.8513   -4.9491 H   0  0  0  0  0  0  0  0  0  0  0  0
   -9.7122   -6.5951   -3.2400 H   0  0  0  0  0  0  0  0  0  0  0  0
   -9.4209   -8.2429   -3.8479 H   0  0  0  0  0  0  0  0  0  0  0  0
  -11.9082   -6.7932   -2.5100 H   0  0  0  0  0  0  0  0  0  0  0  0
  -18.6202   -6.5289   -2.9279 H   0  0  0  0  0  0  0  0  0  0  0  0
  -20.0237   -5.9421   -0.9620 H   0  0  0  0  0  0  0  0  0  0  0  0
  1  2  1  0
  2  3  1  0
  3  4  1  0
  4  5  2  0
  5  6  1  0
  6  7  2  0
  7  8  1  0
  8  9  1  0
  9 10  1  0
 10 11  2  0
 11 12  1  0
 12 13  2  0
 13 14  1  0
 14 15  2  0
 14 16  1  0
 16 17  1  0
 17 18  2  0
 18 19  1  0
 19 20  2  0
 20 21  1  0
 21 22  1  0
 21 23  2  0
 13 24  1  0
 24 25  2  0
  3  7  1  0
 10 25  1  0
 17 23  1  0
  1 26  1  0
  1 27  1  0
  1 28  1  0
  2 29  1  0
  2 30  1  0
  8 31  1  0
  9 32  1  0
  9 33  1  0
 11 34  1  0
 12 35  1  0
 16 36  1  0
 18 37  1  0
 19 38  1  0
 20 39  1  0
 22 40  1  0
 22 41  1  0
 22 42  1  0
 23 43  1  0
 24 44  1  0
 25 45  1  0
M  END
>  <CHROM.1>  (10) 
77.41756773,178.26432856,-119.86301080,-149.71224039,163.79735602,2.14190614
-17.62234872,-6.42079315,-1.42254046,2.61531034,0.05873285,1.11671556

>  <Name>  (10) 
design_15

>  <RI>  (10) 
17438400.000000

>  <Rbt.Current_Directory>  (10) 
/pylon5/mc5pksp/smaltr/gateway_workdirs/PROCESS_93251df5-8da2-4fa9-b874-71853b29d1ad

>  <Rbt.Executable>  (10) 
rbdock ($Id: //depot/dev/client3/rdock/2013.1/src/exe/rbdock.cxx#4 $)

>  <Rbt.Library>  (10) 
libRbt.so (2013.1, Build901 2013/11/27)

>  <Rbt.Parameter_File>  (10) 
/home/smaltr/software/rDock_2013.1_src//data/scripts/dock.prm

>  <Rbt.Receptor>  (10) 
/pylon5/mc5pksp/smaltr/gateway_workdirs/PROCESS_93251df5-8da2-4fa9-b874-71853b29d1ad/output/SnD-Target-Sep02/cavity/pocket_docking.prm

>  <SCORE>  (10) 
-17.669800

>  <SCORE.INTER>  (10) 
-18.310200

>  <SCORE.INTER.CONST>  (10) 
1

>  <SCORE.INTER.POLAR>  (10) 
-2.086010

>  <SCORE.INTER.REPUL>  (10) 
0

>  <SCORE.INTER.ROT>  (10) 
6

>  <SCORE.INTER.VDW>  (10) 
-22.617800

>  <SCORE.INTER.norm>  (10) 
-0.732408

>  <SCORE.INTRA>  (10) 
0.640401

>  <SCORE.INTRA.DIHEDRAL>  (10) 
-0.228389

>  <SCORE.INTRA.DIHEDRAL.0>  (10) 
6.816800

>  <SCORE.INTRA.POLAR>  (10) 
0

>  <SCORE.INTRA.POLAR.0>  (10) 
0

>  <SCORE.INTRA.REPUL>  (10) 
0

>  <SCORE.INTRA.REPUL.0>  (10) 
0

>  <SCORE.INTRA.VDW>  (10) 
0.754596

>  <SCORE.INTRA.VDW.0>  (10) 
-1.611020

>  <SCORE.INTRA.norm>  (10) 
0.025616

>  <SCORE.RESTR>  (10) 
0

>  <SCORE.RESTR.CAVITY>  (10) 
0

>  <SCORE.RESTR.norm>  (10) 
0

>  <SCORE.SYSTEM>  (10) 
0

>  <SCORE.SYSTEM.CONST>  (10) 
0

>  <SCORE.SYSTEM.DIHEDRAL>  (10) 
0

>  <SCORE.SYSTEM.norm>  (10) 
0

>  <SCORE.heavy>  (10) 
25

>  <SCORE.norm>  (10) 
-0.706792

>  <SMILES>  (10) 
CCn1nnnc1NCc1ccc(C(=O)Nc2cccc(C)c2)cc1

>  <Cycle>  (10) 
228

>  <MolWeight>  (10) 
336.399000

>  <LogP>  (10) 
2.865820

>  <QED>  (10) 
0.722880

>  <SAS>  (10) 
2.041392

$$$$
