O=C(N(CC1=CC(Br)=CS1)C2=CC=C(C(N(C)C)=O)C=C2)C3=C(O)C=C(O)C=C3
  cdxl180110032016272D

 29 31  0  0  0  0  0  0  0  0999 V2000
   -0.7059   -2.8875    0.0000 O   0  0  0  0  0  0  0  0  0  0  0  0
   -0.7059   -2.0625    0.0000 C   0  0  0  0  0  0  0  0  0  0  0  0
    0.0086   -1.6500    0.0000 N   0  0  0  0  0  0  0  0  0  0  0  0
    0.7231   -2.0625    0.0000 C   0  0  0  0  0  0  0  0  0  0  0  0
    1.4376   -1.6500    0.0000 C   0  0  0  0  0  0  0  0  0  0  0  0
    2.1912   -1.9856    0.0000 C   0  0  0  0  0  0  0  0  0  0  0  0
    2.7433   -1.3725    0.0000 C   0  0  0  0  0  0  0  0  0  0  0  0
    3.5637   -1.4587    0.0000 Br  0  0  0  0  0  0  0  0  0  0  0  0
    2.3308   -0.6580    0.0000 C   0  0  0  0  0  0  0  0  0  0  0  0
    1.5238   -0.8295    0.0000 S   0  0  0  0  0  0  0  0  0  0  0  0
    0.0086   -0.8250    0.0000 C   0  0  0  0  0  0  0  0  0  0  0  0
    0.7231   -0.4125    0.0000 C   0  0  0  0  0  0  0  0  0  0  0  0
    0.7231    0.4125    0.0000 C   0  0  0  0  0  0  0  0  0  0  0  0
    0.0086    0.8250    0.0000 C   0  0  0  0  0  0  0  0  0  0  0  0
    0.0086    1.6500    0.0000 C   0  0  0  0  0  0  0  0  0  0  0  0
    0.7231    2.0625    0.0000 N   0  0  0  0  0  0  0  0  0  0  0  0
    1.4376    1.6500    0.0000 C   0  0  0  0  0  0  0  0  0  0  0  0
    0.7231    2.8875    0.0000 C   0  0  0  0  0  0  0  0  0  0  0  0
   -0.7059    2.0625    0.0000 O   0  0  0  0  0  0  0  0  0  0  0  0
   -0.7059    0.4125    0.0000 C   0  0  0  0  0  0  0  0  0  0  0  0
   -0.7059   -0.4125    0.0000 C   0  0  0  0  0  0  0  0  0  0  0  0
   -1.4203   -1.6500    0.0000 C   0  0  0  0  0  0  0  0  0  0  0  0
   -2.1348   -2.0625    0.0000 C   0  0  0  0  0  0  0  0  0  0  0  0
   -2.1348   -2.8875    0.0000 O   0  0  0  0  0  0  0  0  0  0  0  0
   -2.8493   -1.6500    0.0000 C   0  0  0  0  0  0  0  0  0  0  0  0
   -2.8493   -0.8250    0.0000 C   0  0  0  0  0  0  0  0  0  0  0  0
   -3.5637   -0.4125    0.0000 O   0  0  0  0  0  0  0  0  0  0  0  0
   -2.1348   -0.4125    0.0000 C   0  0  0  0  0  0  0  0  0  0  0  0
   -1.4203   -0.8250    0.0000 C   0  0  0  0  0  0  0  0  0  0  0  0
  1  2  2  0        0
  2  3  1  0        0
  3  4  1  0        0
  4  5  1  0        0
  5  6  2  0        0
  6  7  1  0        0
  7  8  1  0        0
  7  9  2  0        0
  9 10  1  0        0
  5 10  1  0        0
  3 11  1  0        0
 11 12  2  0        0
 12 13  1  0        0
 13 14  2  0        0
 14 15  1  0        0
 15 16  1  0        0
 16 17  1  0        0
 16 18  1  0        0
 15 19  2  0        0
 14 20  1  0        0
 20 21  2  0        0
 11 21  1  0        0
  2 22  1  0        0
 22 23  2  0        0
 23 24  1  0        0
 23 25  1  0        0
 25 26  2  0        0
 26 27  1  0        0
 26 28  1  0        0
 28 29  2  0        0
 22 29  1  0        0
M  END
>  <PDHK IC50 nM>
8

>  <pIC50>
8.1

>  <paper>
Cho

>  <compound No.>
19t

$$$$
O=C(N(CC1=CC=C(Br)O1)C2=CC=C(C(N(C)C)=O)C=C2)C3=C(O)C=C(O)C=C3
  cdxl180110032016272D

 29 31  0  0  0  0  0  0  0  0999 V2000
   -0.7059   -2.8875    0.0000 O   0  0  0  0  0  0  0  0  0  0  0  0
   -0.7059   -2.0625    0.0000 C   0  0  0  0  0  0  0  0  0  0  0  0
    0.0086   -1.6500    0.0000 N   0  0  0  0  0  0  0  0  0  0  0  0
    0.7231   -2.0625    0.0000 C   0  0  0  0  0  0  0  0  0  0  0  0
    1.4376   -1.6500    0.0000 C   0  0  0  0  0  0  0  0  0  0  0  0
    1.5238   -0.8295    0.0000 C   0  0  0  0  0  0  0  0  0  0  0  0
    2.3308   -0.6580    0.0000 C   0  0  0  0  0  0  0  0  0  0  0  0
    2.7433   -1.3725    0.0000 C   0  0  0  0  0  0  0  0  0  0  0  0
    3.5637   -1.4587    0.0000 Br  0  0  0  0  0  0  0  0  0  0  0  0
    2.1912   -1.9856    0.0000 O   0  0  0  0  0  0  0  0  0  0  0  0
    0.0086   -0.8250    0.0000 C   0  0  0  0  0  0  0  0  0  0  0  0
    0.7231   -0.4125    0.0000 C   0  0  0  0  0  0  0  0  0  0  0  0
    0.7231    0.4125    0.0000 C   0  0  0  0  0  0  0  0  0  0  0  0
    0.0086    0.8250    0.0000 C   0  0  0  0  0  0  0  0  0  0  0  0
    0.0086    1.6500    0.0000 C   0  0  0  0  0  0  0  0  0  0  0  0
    0.7231    2.0625    0.0000 N   0  0  0  0  0  0  0  0  0  0  0  0
    1.4376    1.6500    0.0000 C   0  0  0  0  0  0  0  0  0  0  0  0
    0.7231    2.8875    0.0000 C   0  0  0  0  0  0  0  0  0  0  0  0
   -0.7059    2.0625    0.0000 O   0  0  0  0  0  0  0  0  0  0  0  0
   -0.7059    0.4125    0.0000 C   0  0  0  0  0  0  0  0  0  0  0  0
   -0.7059   -0.4125    0.0000 C   0  0  0  0  0  0  0  0  0  0  0  0
   -1.4203   -1.6500    0.0000 C   0  0  0  0  0  0  0  0  0  0  0  0
   -2.1348   -2.0625    0.0000 C   0  0  0  0  0  0  0  0  0  0  0  0
   -2.1348   -2.8875    0.0000 O   0  0  0  0  0  0  0  0  0  0  0  0
   -2.8493   -1.6500    0.0000 C   0  0  0  0  0  0  0  0  0  0  0  0
   -2.8493   -0.8250    0.0000 C   0  0  0  0  0  0  0  0  0  0  0  0
   -3.5637   -0.4125    0.0000 O   0  0  0  0  0  0  0  0  0  0  0  0
   -2.1348   -0.4125    0.0000 C   0  0  0  0  0  0  0  0  0  0  0  0
   -1.4203   -0.8250    0.0000 C   0  0  0  0  0  0  0  0  0  0  0  0
  1  2  2  0        0
  2  3  1  0        0
  3  4  1  0        0
  4  5  1  0        0
  5  6  2  0        0
  6  7  1  0        0
  7  8  2  0        0
  8  9  1  0        0
  8 10  1  0        0
  5 10  1  0        0
  3 11  1  0        0
 11 12  2  0        0
 12 13  1  0        0
 13 14  2  0        0
 14 15  1  0        0
 15 16  1  0        0
 16 17  1  0        0
 16 18  1  0        0
 15 19  2  0        0
 14 20  1  0        0
 20 21  2  0        0
 11 21  1  0        0
  2 22  1  0        0
 22 23  2  0        0
 23 24  1  0        0
 23 25  1  0        0
 25 26  2  0        0
 26 27  1  0        0
 26 28  1  0        0
 28 29  2  0        0
 22 29  1  0        0
M  END
>  <PDHK IC50 nM>
10

>  <pIC50>
8.0

>  <paper>
Cho

>  <compound No.>
19n

$$$$
O=C(N(CC1=CC=C(Br)S1)C2=CC=C(C(N(C)C)=O)C=C2)C3=C(O)C=C(O)C=C3
  cdxl180110032016272D

 29 31  0  0  0  0  0  0  0  0999 V2000
   -0.7059   -2.8875    0.0000 O   0  0  0  0  0  0  0  0  0  0  0  0
   -0.7059   -2.0625    0.0000 C   0  0  0  0  0  0  0  0  0  0  0  0
    0.0086   -1.6500    0.0000 N   0  0  0  0  0  0  0  0  0  0  0  0
    0.7231   -2.0625    0.0000 C   0  0  0  0  0  0  0  0  0  0  0  0
    1.4376   -1.6500    0.0000 C   0  0  0  0  0  0  0  0  0  0  0  0
    1.5238   -0.8295    0.0000 C   0  0  0  0  0  0  0  0  0  0  0  0
    2.3308   -0.6580    0.0000 C   0  0  0  0  0  0  0  0  0  0  0  0
    2.7433   -1.3725    0.0000 C   0  0  0  0  0  0  0  0  0  0  0  0
    3.5637   -1.4587    0.0000 Br  0  0  0  0  0  0  0  0  0  0  0  0
    2.1912   -1.9856    0.0000 S   0  0  0  0  0  0  0  0  0  0  0  0
    0.0086   -0.8250    0.0000 C   0  0  0  0  0  0  0  0  0  0  0  0
    0.7231   -0.4125    0.0000 C   0  0  0  0  0  0  0  0  0  0  0  0
    0.7231    0.4125    0.0000 C   0  0  0  0  0  0  0  0  0  0  0  0
    0.0086    0.8250    0.0000 C   0  0  0  0  0  0  0  0  0  0  0  0
    0.0086    1.6500    0.0000 C   0  0  0  0  0  0  0  0  0  0  0  0
    0.7231    2.0625    0.0000 N   0  0  0  0  0  0  0  0  0  0  0  0
    1.4376    1.6500    0.0000 C   0  0  0  0  0  0  0  0  0  0  0  0
    0.7231    2.8875    0.0000 C   0  0  0  0  0  0  0  0  0  0  0  0
   -0.7059    2.0625    0.0000 O   0  0  0  0  0  0  0  0  0  0  0  0
   -0.7059    0.4125    0.0000 C   0  0  0  0  0  0  0  0  0  0  0  0
   -0.7059   -0.4125    0.0000 C   0  0  0  0  0  0  0  0  0  0  0  0
   -1.4203   -1.6500    0.0000 C   0  0  0  0  0  0  0  0  0  0  0  0
   -2.1348   -2.0625    0.0000 C   0  0  0  0  0  0  0  0  0  0  0  0
   -2.1348   -2.8875    0.0000 O   0  0  0  0  0  0  0  0  0  0  0  0
   -2.8493   -1.6500    0.0000 C   0  0  0  0  0  0  0  0  0  0  0  0
   -2.8493   -0.8250    0.0000 C   0  0  0  0  0  0  0  0  0  0  0  0
   -3.5637   -0.4125    0.0000 O   0  0  0  0  0  0  0  0  0  0  0  0
   -2.1348   -0.4125    0.0000 C   0  0  0  0  0  0  0  0  0  0  0  0
   -1.4203   -0.8250    0.0000 C   0  0  0  0  0  0  0  0  0  0  0  0
  1  2  2  0        0
  2  3  1  0        0
  3  4  1  0        0
  4  5  1  0        0
  5  6  2  0        0
  6  7  1  0        0
  7  8  2  0        0
  8  9  1  0        0
  8 10  1  0        0
  5 10  1  0        0
  3 11  1  0        0
 11 12  2  0        0
 12 13  1  0        0
 13 14  2  0        0
 14 15  1  0        0
 15 16  1  0        0
 16 17  1  0        0
 16 18  1  0        0
 15 19  2  0        0
 14 20  1  0        0
 20 21  2  0        0
 11 21  1  0        0
  2 22  1  0        0
 22 23  2  0        0
 23 24  1  0        0
 23 25  1  0        0
 25 26  2  0        0
 26 27  1  0        0
 26 28  1  0        0
 28 29  2  0        0
 22 29  1  0        0
M  END
>  <PDHK IC50 nM>
18

>  <pIC50>
7.7

>  <paper>
Cho

>  <compound No.>
19p

$$$$
O=C(N(CC1=NC=C(Br)S1)C2=CC=C(C(N(C)C)=O)C=C2)C3=C(O)C=C(O)C=C3
  cdxl180110032016272D

 29 31  0  0  0  0  0  0  0  0999 V2000
   -0.7059   -2.8875    0.0000 O   0  0  0  0  0  0  0  0  0  0  0  0
   -0.7059   -2.0625    0.0000 C   0  0  0  0  0  0  0  0  0  0  0  0
    0.0086   -1.6500    0.0000 N   0  0  0  0  0  0  0  0  0  0  0  0
    0.7231   -2.0625    0.0000 C   0  0  0  0  0  0  0  0  0  0  0  0
    1.4376   -1.6500    0.0000 C   0  0  0  0  0  0  0  0  0  0  0  0
    1.5238   -0.8295    0.0000 N   0  0  0  0  0  0  0  0  0  0  0  0
    2.3308   -0.6580    0.0000 C   0  0  0  0  0  0  0  0  0  0  0  0
    2.7433   -1.3725    0.0000 C   0  0  0  0  0  0  0  0  0  0  0  0
    3.5637   -1.4587    0.0000 Br  0  0  0  0  0  0  0  0  0  0  0  0
    2.1912   -1.9856    0.0000 S   0  0  0  0  0  0  0  0  0  0  0  0
    0.0086   -0.8250    0.0000 C   0  0  0  0  0  0  0  0  0  0  0  0
    0.7231   -0.4125    0.0000 C   0  0  0  0  0  0  0  0  0  0  0  0
    0.7231    0.4125    0.0000 C   0  0  0  0  0  0  0  0  0  0  0  0
    0.0086    0.8250    0.0000 C   0  0  0  0  0  0  0  0  0  0  0  0
    0.0086    1.6500    0.0000 C   0  0  0  0  0  0  0  0  0  0  0  0
    0.7231    2.0625    0.0000 N   0  0  0  0  0  0  0  0  0  0  0  0
    1.4376    1.6500    0.0000 C   0  0  0  0  0  0  0  0  0  0  0  0
    0.7231    2.8875    0.0000 C   0  0  0  0  0  0  0  0  0  0  0  0
   -0.7059    2.0625    0.0000 O   0  0  0  0  0  0  0  0  0  0  0  0
   -0.7059    0.4125    0.0000 C   0  0  0  0  0  0  0  0  0  0  0  0
   -0.7059   -0.4125    0.0000 C   0  0  0  0  0  0  0  0  0  0  0  0
   -1.4203   -1.6500    0.0000 C   0  0  0  0  0  0  0  0  0  0  0  0
   -2.1348   -2.0625    0.0000 C   0  0  0  0  0  0  0  0  0  0  0  0
   -2.1348   -2.8875    0.0000 O   0  0  0  0  0  0  0  0  0  0  0  0
   -2.8493   -1.6500    0.0000 C   0  0  0  0  0  0  0  0  0  0  0  0
   -2.8493   -0.8250    0.0000 C   0  0  0  0  0  0  0  0  0  0  0  0
   -3.5637   -0.4125    0.0000 O   0  0  0  0  0  0  0  0  0  0  0  0
   -2.1348   -0.4125    0.0000 C   0  0  0  0  0  0  0  0  0  0  0  0
   -1.4203   -0.8250    0.0000 C   0  0  0  0  0  0  0  0  0  0  0  0
  1  2  2  0        0
  2  3  1  0        0
  3  4  1  0        0
  4  5  1  0        0
  5  6  2  0        0
  6  7  1  0        0
  7  8  2  0        0
  8  9  1  0        0
  8 10  1  0        0
  5 10  1  0        0
  3 11  1  0        0
 11 12  2  0        0
 12 13  1  0        0
 13 14  2  0        0
 14 15  1  0        0
 15 16  1  0        0
 16 17  1  0        0
 16 18  1  0        0
 15 19  2  0        0
 14 20  1  0        0
 20 21  2  0        0
 11 21  1  0        0
  2 22  1  0        0
 22 23  2  0        0
 23 24  1  0        0
 23 25  1  0        0
 25 26  2  0        0
 26 27  1  0        0
 26 28  1  0        0
 28 29  2  0        0
 22 29  1  0        0
M  END
>  <PDHK IC50 nM>
64

>  <pIC50>
7.2

>  <paper>
Cho

>  <compound No.>
19s

$$$$
O=C(N(CC1=CC=C(CNC(C(F)F)=O)C=C1)C2=CC=C(C3=NC(Cl)=NC=C3C)C=C2)C4=C(O)C=C(O)C=C4
  cdxl180110032016272D

 39 42  0  0  0  0  0  0  0  0999 V2000
   -2.1434   -3.0938    0.0000 O   0  0  0  0  0  0  0  0  0  0  0  0
   -2.1434   -2.2687    0.0000 C   0  0  0  0  0  0  0  0  0  0  0  0
   -1.4289   -1.8562    0.0000 N   0  0  0  0  0  0  0  0  0  0  0  0
   -0.7145   -2.2687    0.0000 C   0  0  0  0  0  0  0  0  0  0  0  0
   -0.0000   -1.8562    0.0000 C   0  0  0  0  0  0  0  0  0  0  0  0
   -0.0000   -1.0313    0.0000 C   0  0  0  0  0  0  0  0  0  0  0  0
    0.7145   -0.6188    0.0000 C   0  0  0  0  0  0  0  0  0  0  0  0
    1.4289   -1.0313    0.0000 C   0  0  0  0  0  0  0  0  0  0  0  0
    2.1434   -0.6188    0.0000 C   0  0  0  0  0  0  0  0  0  0  0  0
    2.8579   -1.0313    0.0000 N   0  0  0  0  0  0  0  0  0  0  0  0
    3.5724   -0.6188    0.0000 C   0  0  0  0  0  0  0  0  0  0  0  0
    4.2868   -1.0313    0.0000 C   0  0  0  0  0  0  0  0  0  0  0  0
    5.0013   -0.6188    0.0000 F   0  0  0  0  0  0  0  0  0  0  0  0
    4.2868   -1.8562    0.0000 F   0  0  0  0  0  0  0  0  0  0  0  0
    3.5724    0.2062    0.0000 O   0  0  0  0  0  0  0  0  0  0  0  0
    1.4289   -1.8562    0.0000 C   0  0  0  0  0  0  0  0  0  0  0  0
    0.7145   -2.2687    0.0000 C   0  0  0  0  0  0  0  0  0  0  0  0
   -1.4289   -1.0313    0.0000 C   0  0  0  0  0  0  0  0  0  0  0  0
   -2.1434   -0.6188    0.0000 C   0  0  0  0  0  0  0  0  0  0  0  0
   -2.1434    0.2062    0.0000 C   0  0  0  0  0  0  0  0  0  0  0  0
   -1.4289    0.6188    0.0000 C   0  0  0  0  0  0  0  0  0  0  0  0
   -1.4289    1.4438    0.0000 C   0  0  0  0  0  0  0  0  0  0  0  0
   -2.1434    1.8562    0.0000 N   0  0  0  0  0  0  0  0  0  0  0  0
   -2.1434    2.6812    0.0000 C   0  0  0  0  0  0  0  0  0  0  0  0
   -2.8579    3.0938    0.0000 Cl  0  0  0  0  0  0  0  0  0  0  0  0
   -1.4289    3.0938    0.0000 N   0  0  0  0  0  0  0  0  0  0  0  0
   -0.7145    2.6812    0.0000 C   0  0  0  0  0  0  0  0  0  0  0  0
   -0.7145    1.8562    0.0000 C   0  0  0  0  0  0  0  0  0  0  0  0
   -0.0000    1.4438    0.0000 C   0  0  0  0  0  0  0  0  0  0  0  0
   -0.7145    0.2062    0.0000 C   0  0  0  0  0  0  0  0  0  0  0  0
   -0.7145   -0.6188    0.0000 C   0  0  0  0  0  0  0  0  0  0  0  0
   -2.8579   -1.8562    0.0000 C   0  0  0  0  0  0  0  0  0  0  0  0
   -3.5724   -2.2687    0.0000 C   0  0  0  0  0  0  0  0  0  0  0  0
   -3.5724   -3.0938    0.0000 O   0  0  0  0  0  0  0  0  0  0  0  0
   -4.2868   -1.8562    0.0000 C   0  0  0  0  0  0  0  0  0  0  0  0
   -4.2868   -1.0313    0.0000 C   0  0  0  0  0  0  0  0  0  0  0  0
   -5.0013   -0.6188    0.0000 O   0  0  0  0  0  0  0  0  0  0  0  0
   -3.5724   -0.6188    0.0000 C   0  0  0  0  0  0  0  0  0  0  0  0
   -2.8579   -1.0313    0.0000 C   0  0  0  0  0  0  0  0  0  0  0  0
  1  2  2  0        0
  2  3  1  0        0
  3  4  1  0        0
  4  5  1  0        0
  5  6  2  0        0
  6  7  1  0        0
  7  8  2  0        0
  8  9  1  0        0
  9 10  1  0        0
 10 11  1  0        0
 11 12  1  0        0
 12 13  1  0        0
 12 14  1  0        0
 11 15  2  0        0
  8 16  1  0        0
 16 17  2  0        0
  5 17  1  0        0
  3 18  1  0        0
 18 19  2  0        0
 19 20  1  0        0
 20 21  2  0        0
 21 22  1  0        0
 22 23  2  0        0
 23 24  1  0        0
 24 25  1  0        0
 24 26  2  0        0
 26 27  1  0        0
 27 28  2  0        0
 22 28  1  0        0
 28 29  1  0        0
 21 30  1  0        0
 30 31  2  0        0
 18 31  1  0        0
  2 32  1  0        0
 32 33  2  0        0
 33 34  1  0        0
 33 35  1  0        0
 35 36  2  0        0
 36 37  1  0        0
 36 38  1  0        0
 38 39  2  0        0
 32 39  1  0        0
M  END
>  <PDHK IC50 nM>
65

>  <pIC50>
7.2

>  <paper>
Cho

>  <compound No.>
6

$$$$
O=C(N(CC1=CC=C(C#N)S1)C2=CC=C(C(N(C)C)=O)C=C2)C3=C(O)C=C(O)C=C3
  cdxl180110032016272D

 30 32  0  0  0  0  0  0  0  0999 V2000
   -1.1161   -2.8875    0.0000 O   0  0  0  0  0  0  0  0  0  0  0  0
   -1.1161   -2.0625    0.0000 C   0  0  0  0  0  0  0  0  0  0  0  0
   -0.4016   -1.6500    0.0000 N   0  0  0  0  0  0  0  0  0  0  0  0
    0.3128   -2.0625    0.0000 C   0  0  0  0  0  0  0  0  0  0  0  0
    1.0273   -1.6500    0.0000 C   0  0  0  0  0  0  0  0  0  0  0  0
    1.1136   -0.8295    0.0000 C   0  0  0  0  0  0  0  0  0  0  0  0
    1.9205   -0.6580    0.0000 C   0  0  0  0  0  0  0  0  0  0  0  0
    2.3330   -1.3725    0.0000 C   0  0  0  0  0  0  0  0  0  0  0  0
    3.1535   -1.4587    0.0000 C   0  0  0  0  0  0  0  0  0  0  0  0
    3.9740   -1.5449    0.0000 N   0  0  0  0  0  0  0  0  0  0  0  0
    1.7810   -1.9856    0.0000 S   0  0  0  0  0  0  0  0  0  0  0  0
   -0.4016   -0.8250    0.0000 C   0  0  0  0  0  0  0  0  0  0  0  0
    0.3128   -0.4125    0.0000 C   0  0  0  0  0  0  0  0  0  0  0  0
    0.3128    0.4125    0.0000 C   0  0  0  0  0  0  0  0  0  0  0  0
   -0.4016    0.8250    0.0000 C   0  0  0  0  0  0  0  0  0  0  0  0
   -0.4016    1.6500    0.0000 C   0  0  0  0  0  0  0  0  0  0  0  0
   -1.1161    2.0625    0.0000 N   0  0  0  0  0  0  0  0  0  0  0  0
   -1.8306    1.6500    0.0000 C   0  0  0  0  0  0  0  0  0  0  0  0
   -1.1161    2.8875    0.0000 C   0  0  0  0  0  0  0  0  0  0  0  0
    0.3128    2.0625    0.0000 O   0  0  0  0  0  0  0  0  0  0  0  0
   -1.1161    0.4125    0.0000 C   0  0  0  0  0  0  0  0  0  0  0  0
   -1.1161   -0.4125    0.0000 C   0  0  0  0  0  0  0  0  0  0  0  0
   -1.8306   -1.6500    0.0000 C   0  0  0  0  0  0  0  0  0  0  0  0
   -2.5450   -2.0625    0.0000 C   0  0  0  0  0  0  0  0  0  0  0  0
   -2.5450   -2.8875    0.0000 O   0  0  0  0  0  0  0  0  0  0  0  0
   -3.2595   -1.6500    0.0000 C   0  0  0  0  0  0  0  0  0  0  0  0
   -3.2595   -0.8250    0.0000 C   0  0  0  0  0  0  0  0  0  0  0  0
   -3.9740   -0.4125    0.0000 O   0  0  0  0  0  0  0  0  0  0  0  0
   -2.5450   -0.4125    0.0000 C   0  0  0  0  0  0  0  0  0  0  0  0
   -1.8306   -0.8250    0.0000 C   0  0  0  0  0  0  0  0  0  0  0  0
  1  2  2  0        0
  2  3  1  0        0
  3  4  1  0        0
  4  5  1  0        0
  5  6  2  0        0
  6  7  1  0        0
  7  8  2  0        0
  8  9  1  0        0
  9 10  3  0        0
  8 11  1  0        0
  5 11  1  0        0
  3 12  1  0        0
 12 13  2  0        0
 13 14  1  0        0
 14 15  2  0        0
 15 16  1  0        0
 16 17  1  0        0
 17 18  1  0        0
 17 19  1  0        0
 16 20  2  0        0
 15 21  1  0        0
 21 22  2  0        0
 12 22  1  0        0
  2 23  1  0        0
 23 24  2  0        0
 24 25  1  0        0
 24 26  1  0        0
 26 27  2  0        0
 27 28  1  0        0
 27 29  1  0        0
 29 30  2  0        0
 23 30  1  0        0
M  END
>  <PDHK IC50 nM>
95

>  <pIC50>
7.0

>  <paper>
Cho

>  <compound No.>
19q

$$$$
O=C(N(CC1=CC=C(I)O1)C2=CC=C(C(N(C)C)=O)C=C2)C3=C(O)C=C(O)C=C3
  cdxl180110032016272D

 29 31  0  0  0  0  0  0  0  0999 V2000
   -0.7059   -2.8875    0.0000 O   0  0  0  0  0  0  0  0  0  0  0  0
   -0.7059   -2.0625    0.0000 C   0  0  0  0  0  0  0  0  0  0  0  0
    0.0086   -1.6500    0.0000 N   0  0  0  0  0  0  0  0  0  0  0  0
    0.7231   -2.0625    0.0000 C   0  0  0  0  0  0  0  0  0  0  0  0
    1.4376   -1.6500    0.0000 C   0  0  0  0  0  0  0  0  0  0  0  0
    1.5238   -0.8295    0.0000 C   0  0  0  0  0  0  0  0  0  0  0  0
    2.3308   -0.6580    0.0000 C   0  0  0  0  0  0  0  0  0  0  0  0
    2.7433   -1.3725    0.0000 C   0  0  0  0  0  0  0  0  0  0  0  0
    3.5637   -1.4587    0.0000 I   0  0  0  0  0  0  0  0  0  0  0  0
    2.1912   -1.9856    0.0000 O   0  0  0  0  0  0  0  0  0  0  0  0
    0.0086   -0.8250    0.0000 C   0  0  0  0  0  0  0  0  0  0  0  0
    0.7231   -0.4125    0.0000 C   0  0  0  0  0  0  0  0  0  0  0  0
    0.7231    0.4125    0.0000 C   0  0  0  0  0  0  0  0  0  0  0  0
    0.0086    0.8250    0.0000 C   0  0  0  0  0  0  0  0  0  0  0  0
    0.0086    1.6500    0.0000 C   0  0  0  0  0  0  0  0  0  0  0  0
    0.7231    2.0625    0.0000 N   0  0  0  0  0  0  0  0  0  0  0  0
    1.4376    1.6500    0.0000 C   0  0  0  0  0  0  0  0  0  0  0  0
    0.7231    2.8875    0.0000 C   0  0  0  0  0  0  0  0  0  0  0  0
   -0.7059    2.0625    0.0000 O   0  0  0  0  0  0  0  0  0  0  0  0
   -0.7059    0.4125    0.0000 C   0  0  0  0  0  0  0  0  0  0  0  0
   -0.7059   -0.4125    0.0000 C   0  0  0  0  0  0  0  0  0  0  0  0
   -1.4203   -1.6500    0.0000 C   0  0  0  0  0  0  0  0  0  0  0  0
   -2.1348   -2.0625    0.0000 C   0  0  0  0  0  0  0  0  0  0  0  0
   -2.1348   -2.8875    0.0000 O   0  0  0  0  0  0  0  0  0  0  0  0
   -2.8493   -1.6500    0.0000 C   0  0  0  0  0  0  0  0  0  0  0  0
   -2.8493   -0.8250    0.0000 C   0  0  0  0  0  0  0  0  0  0  0  0
   -3.5637   -0.4125    0.0000 O   0  0  0  0  0  0  0  0  0  0  0  0
   -2.1348   -0.4125    0.0000 C   0  0  0  0  0  0  0  0  0  0  0  0
   -1.4203   -0.8250    0.0000 C   0  0  0  0  0  0  0  0  0  0  0  0
  1  2  2  0        0
  2  3  1  0        0
  3  4  1  0        0
  4  5  1  0        0
  5  6  2  0        0
  6  7  1  0        0
  7  8  2  0        0
  8  9  1  0        0
  8 10  1  0        0
  5 10  1  0        0
  3 11  1  0        0
 11 12  2  0        0
 12 13  1  0        0
 13 14  2  0        0
 14 15  1  0        0
 15 16  1  0        0
 16 17  1  0        0
 16 18  1  0        0
 15 19  2  0        0
 14 20  1  0        0
 20 21  2  0        0
 11 21  1  0        0
  2 22  1  0        0
 22 23  2  0        0
 23 24  1  0        0
 23 25  1  0        0
 25 26  2  0        0
 26 27  1  0        0
 26 28  1  0        0
 28 29  2  0        0
 22 29  1  0        0
M  END
>  <PDHK IC50 nM>
98

>  <pIC50>
7.0

>  <paper>
Cho

>  <compound No.>
19o

$$$$
O=C(N(CC1=CC=C([N+]([O-])=O)C=C1)C2=CC=C(C(N(C)C)=O)C=C2)C3=C(O)C=C(O)C=C3
  cdxl180110032016272D

 32 34  0  0  0  0  0  0  0  0999 V2000
   -1.0717   -2.8875    0.0000 O   0  0  0  0  0  0  0  0  0  0  0  0
   -1.0717   -2.0625    0.0000 C   0  0  0  0  0  0  0  0  0  0  0  0
   -0.3572   -1.6500    0.0000 N   0  0  0  0  0  0  0  0  0  0  0  0
    0.3572   -2.0625    0.0000 C   0  0  0  0  0  0  0  0  0  0  0  0
    1.0717   -1.6500    0.0000 C   0  0  0  0  0  0  0  0  0  0  0  0
    1.7862   -2.0625    0.0000 C   0  0  0  0  0  0  0  0  0  0  0  0
    2.5006   -1.6500    0.0000 C   0  0  0  0  0  0  0  0  0  0  0  0
    2.5006   -0.8250    0.0000 C   0  0  0  0  0  0  0  0  0  0  0  0
    3.2151   -0.4125    0.0000 N   0  3  0  0  0  0  0  0  0  0  0  0
    3.9296   -0.8250    0.0000 O   0  5  0  0  0  0  0  0  0  0  0  0
    3.2151    0.4125    0.0000 O   0  0  0  0  0  0  0  0  0  0  0  0
    1.7862   -0.4125    0.0000 C   0  0  0  0  0  0  0  0  0  0  0  0
    1.0717   -0.8250    0.0000 C   0  0  0  0  0  0  0  0  0  0  0  0
   -0.3572   -0.8250    0.0000 C   0  0  0  0  0  0  0  0  0  0  0  0
    0.3572   -0.4125    0.0000 C   0  0  0  0  0  0  0  0  0  0  0  0
    0.3572    0.4125    0.0000 C   0  0  0  0  0  0  0  0  0  0  0  0
   -0.3572    0.8250    0.0000 C   0  0  0  0  0  0  0  0  0  0  0  0
   -0.3572    1.6500    0.0000 C   0  0  0  0  0  0  0  0  0  0  0  0
   -1.0717    2.0625    0.0000 N   0  0  0  0  0  0  0  0  0  0  0  0
   -1.7862    1.6500    0.0000 C   0  0  0  0  0  0  0  0  0  0  0  0
   -1.0717    2.8875    0.0000 C   0  0  0  0  0  0  0  0  0  0  0  0
    0.3572    2.0625    0.0000 O   0  0  0  0  0  0  0  0  0  0  0  0
   -1.0717    0.4125    0.0000 C   0  0  0  0  0  0  0  0  0  0  0  0
   -1.0717   -0.4125    0.0000 C   0  0  0  0  0  0  0  0  0  0  0  0
   -1.7862   -1.6500    0.0000 C   0  0  0  0  0  0  0  0  0  0  0  0
   -2.5006   -2.0625    0.0000 C   0  0  0  0  0  0  0  0  0  0  0  0
   -2.5006   -2.8875    0.0000 O   0  0  0  0  0  0  0  0  0  0  0  0
   -3.2151   -1.6500    0.0000 C   0  0  0  0  0  0  0  0  0  0  0  0
   -3.2151   -0.8250    0.0000 C   0  0  0  0  0  0  0  0  0  0  0  0
   -3.9296   -0.4125    0.0000 O   0  0  0  0  0  0  0  0  0  0  0  0
   -2.5006   -0.4125    0.0000 C   0  0  0  0  0  0  0  0  0  0  0  0
   -1.7862   -0.8250    0.0000 C   0  0  0  0  0  0  0  0  0  0  0  0
  1  2  2  0        0
  2  3  1  0        0
  3  4  1  0        0
  4  5  1  0        0
  5  6  2  0        0
  6  7  1  0        0
  7  8  2  0        0
  8  9  1  0        0
  9 10  1  0        0
  9 11  2  0        0
  8 12  1  0        0
 12 13  2  0        0
  5 13  1  0        0
  3 14  1  0        0
 14 15  2  0        0
 15 16  1  0        0
 16 17  2  0        0
 17 18  1  0        0
 18 19  1  0        0
 19 20  1  0        0
 19 21  1  0        0
 18 22  2  0        0
 17 23  1  0        0
 23 24  2  0        0
 14 24  1  0        0
  2 25  1  0        0
 25 26  2  0        0
 26 27  1  0        0
 26 28  1  0        0
 28 29  2  0        0
 29 30  1  0        0
 29 31  1  0        0
 31 32  2  0        0
 25 32  1  0        0
M  CHG  2   9   1  10  -1
M  END
>  <PDHK IC50 nM>
110

>  <pIC50>
7.0

>  <paper>
Cho

>  <compound No.>
19e

$$$$
O=C(N(CC1=CC=C(F)C=C1)C2=CC=C(C(N(C)C)=O)C=C2)C3=C(O)C=C(O)C=C3
  cdxl180110032016272D

 30 32  0  0  0  0  0  0  0  0999 V2000
   -0.7145   -2.8875    0.0000 O   0  0  0  0  0  0  0  0  0  0  0  0
   -0.7145   -2.0625    0.0000 C   0  0  0  0  0  0  0  0  0  0  0  0
    0.0000   -1.6500    0.0000 N   0  0  0  0  0  0  0  0  0  0  0  0
    0.7145   -2.0625    0.0000 C   0  0  0  0  0  0  0  0  0  0  0  0
    1.4289   -1.6500    0.0000 C   0  0  0  0  0  0  0  0  0  0  0  0
    2.1434   -2.0625    0.0000 C   0  0  0  0  0  0  0  0  0  0  0  0
    2.8579   -1.6500    0.0000 C   0  0  0  0  0  0  0  0  0  0  0  0
    2.8579   -0.8250    0.0000 C   0  0  0  0  0  0  0  0  0  0  0  0
    3.5724   -0.4125    0.0000 F   0  0  0  0  0  0  0  0  0  0  0  0
    2.1434   -0.4125    0.0000 C   0  0  0  0  0  0  0  0  0  0  0  0
    1.4289   -0.8250    0.0000 C   0  0  0  0  0  0  0  0  0  0  0  0
    0.0000   -0.8250    0.0000 C   0  0  0  0  0  0  0  0  0  0  0  0
    0.7145   -0.4125    0.0000 C   0  0  0  0  0  0  0  0  0  0  0  0
    0.7145    0.4125    0.0000 C   0  0  0  0  0  0  0  0  0  0  0  0
    0.0000    0.8250    0.0000 C   0  0  0  0  0  0  0  0  0  0  0  0
    0.0000    1.6500    0.0000 C   0  0  0  0  0  0  0  0  0  0  0  0
    0.7145    2.0625    0.0000 N   0  0  0  0  0  0  0  0  0  0  0  0
    1.4289    1.6500    0.0000 C   0  0  0  0  0  0  0  0  0  0  0  0
    0.7145    2.8875    0.0000 C   0  0  0  0  0  0  0  0  0  0  0  0
   -0.7145    2.0625    0.0000 O   0  0  0  0  0  0  0  0  0  0  0  0
   -0.7145    0.4125    0.0000 C   0  0  0  0  0  0  0  0  0  0  0  0
   -0.7145   -0.4125    0.0000 C   0  0  0  0  0  0  0  0  0  0  0  0
   -1.4289   -1.6500    0.0000 C   0  0  0  0  0  0  0  0  0  0  0  0
   -2.1434   -2.0625    0.0000 C   0  0  0  0  0  0  0  0  0  0  0  0
   -2.1434   -2.8875    0.0000 O   0  0  0  0  0  0  0  0  0  0  0  0
   -2.8579   -1.6500    0.0000 C   0  0  0  0  0  0  0  0  0  0  0  0
   -2.8579   -0.8250    0.0000 C   0  0  0  0  0  0  0  0  0  0  0  0
   -3.5724   -0.4125    0.0000 O   0  0  0  0  0  0  0  0  0  0  0  0
   -2.1434   -0.4125    0.0000 C   0  0  0  0  0  0  0  0  0  0  0  0
   -1.4289   -0.8250    0.0000 C   0  0  0  0  0  0  0  0  0  0  0  0
  1  2  2  0        0
  2  3  1  0        0
  3  4  1  0        0
  4  5  1  0        0
  5  6  2  0        0
  6  7  1  0        0
  7  8  2  0        0
  8  9  1  0        0
  8 10  1  0        0
 10 11  2  0        0
  5 11  1  0        0
  3 12  1  0        0
 12 13  2  0        0
 13 14  1  0        0
 14 15  2  0        0
 15 16  1  0        0
 16 17  1  0        0
 17 18  1  0        0
 17 19  1  0        0
 16 20  2  0        0
 15 21  1  0        0
 21 22  2  0        0
 12 22  1  0        0
  2 23  1  0        0
 23 24  2  0        0
 24 25  1  0        0
 24 26  1  0        0
 26 27  2  0        0
 27 28  1  0        0
 27 29  1  0        0
 29 30  2  0        0
 23 30  1  0        0
M  END
>  <PDHK IC50 nM>
113

>  <pIC50>
6.9

>  <paper>
Cho

>  <compound No.>
19b

$$$$
O=C(N(CC1=CC=CO1)C2=CC=C(C(N(C)C)=O)C=C2)C3=C(O)C=C(O)C=C3
  cdxl180110032016272D

 28 30  0  0  0  0  0  0  0  0999 V2000
   -0.2956   -2.8875    0.0000 O   0  0  0  0  0  0  0  0  0  0  0  0
   -0.2956   -2.0625    0.0000 C   0  0  0  0  0  0  0  0  0  0  0  0
    0.4189   -1.6500    0.0000 N   0  0  0  0  0  0  0  0  0  0  0  0
    1.1333   -2.0625    0.0000 C   0  0  0  0  0  0  0  0  0  0  0  0
    1.8478   -1.6500    0.0000 C   0  0  0  0  0  0  0  0  0  0  0  0
    2.6015   -1.9856    0.0000 C   0  0  0  0  0  0  0  0  0  0  0  0
    3.1535   -1.3725    0.0000 C   0  0  0  0  0  0  0  0  0  0  0  0
    2.7410   -0.6580    0.0000 C   0  0  0  0  0  0  0  0  0  0  0  0
    1.9340   -0.8295    0.0000 O   0  0  0  0  0  0  0  0  0  0  0  0
    0.4189   -0.8250    0.0000 C   0  0  0  0  0  0  0  0  0  0  0  0
    1.1333   -0.4125    0.0000 C   0  0  0  0  0  0  0  0  0  0  0  0
    1.1333    0.4125    0.0000 C   0  0  0  0  0  0  0  0  0  0  0  0
    0.4189    0.8250    0.0000 C   0  0  0  0  0  0  0  0  0  0  0  0
    0.4189    1.6500    0.0000 C   0  0  0  0  0  0  0  0  0  0  0  0
    1.1333    2.0625    0.0000 N   0  0  0  0  0  0  0  0  0  0  0  0
    1.8478    1.6500    0.0000 C   0  0  0  0  0  0  0  0  0  0  0  0
    1.1333    2.8875    0.0000 C   0  0  0  0  0  0  0  0  0  0  0  0
   -0.2956    2.0625    0.0000 O   0  0  0  0  0  0  0  0  0  0  0  0
   -0.2956    0.4125    0.0000 C   0  0  0  0  0  0  0  0  0  0  0  0
   -0.2956   -0.4125    0.0000 C   0  0  0  0  0  0  0  0  0  0  0  0
   -1.0101   -1.6500    0.0000 C   0  0  0  0  0  0  0  0  0  0  0  0
   -1.7246   -2.0625    0.0000 C   0  0  0  0  0  0  0  0  0  0  0  0
   -1.7246   -2.8875    0.0000 O   0  0  0  0  0  0  0  0  0  0  0  0
   -2.4390   -1.6500    0.0000 C   0  0  0  0  0  0  0  0  0  0  0  0
   -2.4390   -0.8250    0.0000 C   0  0  0  0  0  0  0  0  0  0  0  0
   -3.1535   -0.4125    0.0000 O   0  0  0  0  0  0  0  0  0  0  0  0
   -1.7246   -0.4125    0.0000 C   0  0  0  0  0  0  0  0  0  0  0  0
   -1.0101   -0.8250    0.0000 C   0  0  0  0  0  0  0  0  0  0  0  0
  1  2  2  0        0
  2  3  1  0        0
  3  4  1  0        0
  4  5  1  0        0
  5  6  2  0        0
  6  7  1  0        0
  7  8  2  0        0
  8  9  1  0        0
  5  9  1  0        0
  3 10  1  0        0
 10 11  2  0        0
 11 12  1  0        0
 12 13  2  0        0
 13 14  1  0        0
 14 15  1  0        0
 15 16  1  0        0
 15 17  1  0        0
 14 18  2  0        0
 13 19  1  0        0
 19 20  2  0        0
 10 20  1  0        0
  2 21  1  0        0
 21 22  2  0        0
 22 23  1  0        0
 22 24  1  0        0
 24 25  2  0        0
 25 26  1  0        0
 25 27  1  0        0
 27 28  2  0        0
 21 28  1  0        0
M  END
>  <PDHK IC50 nM>
113

>  <pIC50>
6.9

>  <paper>
Cho

>  <compound No.>
19k

$$$$
O=C(N(CC1=CC=C(Cl)C=C1)C2=CC=C(C(N(C)C)=O)C=C2)C3=C(O)C=C(O)C=C3
  cdxl180110032016272D

 30 32  0  0  0  0  0  0  0  0999 V2000
   -0.7145   -2.8875    0.0000 O   0  0  0  0  0  0  0  0  0  0  0  0
   -0.7145   -2.0625    0.0000 C   0  0  0  0  0  0  0  0  0  0  0  0
    0.0000   -1.6500    0.0000 N   0  0  0  0  0  0  0  0  0  0  0  0
    0.7145   -2.0625    0.0000 C   0  0  0  0  0  0  0  0  0  0  0  0
    1.4289   -1.6500    0.0000 C   0  0  0  0  0  0  0  0  0  0  0  0
    2.1434   -2.0625    0.0000 C   0  0  0  0  0  0  0  0  0  0  0  0
    2.8579   -1.6500    0.0000 C   0  0  0  0  0  0  0  0  0  0  0  0
    2.8579   -0.8250    0.0000 C   0  0  0  0  0  0  0  0  0  0  0  0
    3.5724   -0.4125    0.0000 Cl  0  0  0  0  0  0  0  0  0  0  0  0
    2.1434   -0.4125    0.0000 C   0  0  0  0  0  0  0  0  0  0  0  0
    1.4289   -0.8250    0.0000 C   0  0  0  0  0  0  0  0  0  0  0  0
    0.0000   -0.8250    0.0000 C   0  0  0  0  0  0  0  0  0  0  0  0
    0.7145   -0.4125    0.0000 C   0  0  0  0  0  0  0  0  0  0  0  0
    0.7145    0.4125    0.0000 C   0  0  0  0  0  0  0  0  0  0  0  0
   -0.0000    0.8250    0.0000 C   0  0  0  0  0  0  0  0  0  0  0  0
   -0.0000    1.6500    0.0000 C   0  0  0  0  0  0  0  0  0  0  0  0
    0.7145    2.0625    0.0000 N   0  0  0  0  0  0  0  0  0  0  0  0
    1.4289    1.6500    0.0000 C   0  0  0  0  0  0  0  0  0  0  0  0
    0.7145    2.8875    0.0000 C   0  0  0  0  0  0  0  0  0  0  0  0
   -0.7145    2.0625    0.0000 O   0  0  0  0  0  0  0  0  0  0  0  0
   -0.7145    0.4125    0.0000 C   0  0  0  0  0  0  0  0  0  0  0  0
   -0.7145   -0.4125    0.0000 C   0  0  0  0  0  0  0  0  0  0  0  0
   -1.4289   -1.6500    0.0000 C   0  0  0  0  0  0  0  0  0  0  0  0
   -2.1434   -2.0625    0.0000 C   0  0  0  0  0  0  0  0  0  0  0  0
   -2.1434   -2.8875    0.0000 O   0  0  0  0  0  0  0  0  0  0  0  0
   -2.8579   -1.6500    0.0000 C   0  0  0  0  0  0  0  0  0  0  0  0
   -2.8579   -0.8250    0.0000 C   0  0  0  0  0  0  0  0  0  0  0  0
   -3.5724   -0.4125    0.0000 O   0  0  0  0  0  0  0  0  0  0  0  0
   -2.1434   -0.4125    0.0000 C   0  0  0  0  0  0  0  0  0  0  0  0
   -1.4289   -0.8250    0.0000 C   0  0  0  0  0  0  0  0  0  0  0  0
  1  2  2  0        0
  2  3  1  0        0
  3  4  1  0        0
  4  5  1  0        0
  5  6  2  0        0
  6  7  1  0        0
  7  8  2  0        0
  8  9  1  0        0
  8 10  1  0        0
 10 11  2  0        0
  5 11  1  0        0
  3 12  1  0        0
 12 13  2  0        0
 13 14  1  0        0
 14 15  2  0        0
 15 16  1  0        0
 16 17  1  0        0
 17 18  1  0        0
 17 19  1  0        0
 16 20  2  0        0
 15 21  1  0        0
 21 22  2  0        0
 12 22  1  0        0
  2 23  1  0        0
 23 24  2  0        0
 24 25  1  0        0
 24 26  1  0        0
 26 27  2  0        0
 27 28  1  0        0
 27 29  1  0        0
 29 30  2  0        0
 23 30  1  0        0
M  END
>  <PDHK IC50 nM>
126

>  <pIC50>
6.9

>  <paper>
Cho

>  <compound No.>
19c

$$$$
O=C(N(CC1=CN=C(Br)S1)C2=CC=C(C(N(C)C)=O)C=C2)C3=C(O)C=C(O)C=C3
  cdxl180110032016272D

 29 31  0  0  0  0  0  0  0  0999 V2000
   -0.7059   -2.8875    0.0000 O   0  0  0  0  0  0  0  0  0  0  0  0
   -0.7059   -2.0625    0.0000 C   0  0  0  0  0  0  0  0  0  0  0  0
    0.0086   -1.6500    0.0000 N   0  0  0  0  0  0  0  0  0  0  0  0
    0.7231   -2.0625    0.0000 C   0  0  0  0  0  0  0  0  0  0  0  0
    1.4376   -1.6500    0.0000 C   0  0  0  0  0  0  0  0  0  0  0  0
    1.5238   -0.8295    0.0000 C   0  0  0  0  0  0  0  0  0  0  0  0
    2.3308   -0.6580    0.0000 N   0  0  0  0  0  0  0  0  0  0  0  0
    2.7433   -1.3725    0.0000 C   0  0  0  0  0  0  0  0  0  0  0  0
    3.5637   -1.4587    0.0000 Br  0  0  0  0  0  0  0  0  0  0  0  0
    2.1912   -1.9856    0.0000 S   0  0  0  0  0  0  0  0  0  0  0  0
    0.0086   -0.8250    0.0000 C   0  0  0  0  0  0  0  0  0  0  0  0
    0.7231   -0.4125    0.0000 C   0  0  0  0  0  0  0  0  0  0  0  0
    0.7231    0.4125    0.0000 C   0  0  0  0  0  0  0  0  0  0  0  0
    0.0086    0.8250    0.0000 C   0  0  0  0  0  0  0  0  0  0  0  0
    0.0086    1.6500    0.0000 C   0  0  0  0  0  0  0  0  0  0  0  0
    0.7231    2.0625    0.0000 N   0  0  0  0  0  0  0  0  0  0  0  0
    1.4376    1.6500    0.0000 C   0  0  0  0  0  0  0  0  0  0  0  0
    0.7231    2.8875    0.0000 C   0  0  0  0  0  0  0  0  0  0  0  0
   -0.7059    2.0625    0.0000 O   0  0  0  0  0  0  0  0  0  0  0  0
   -0.7059    0.4125    0.0000 C   0  0  0  0  0  0  0  0  0  0  0  0
   -0.7059   -0.4125    0.0000 C   0  0  0  0  0  0  0  0  0  0  0  0
   -1.4203   -1.6500    0.0000 C   0  0  0  0  0  0  0  0  0  0  0  0
   -2.1348   -2.0625    0.0000 C   0  0  0  0  0  0  0  0  0  0  0  0
   -2.1348   -2.8875    0.0000 O   0  0  0  0  0  0  0  0  0  0  0  0
   -2.8493   -1.6500    0.0000 C   0  0  0  0  0  0  0  0  0  0  0  0
   -2.8493   -0.8250    0.0000 C   0  0  0  0  0  0  0  0  0  0  0  0
   -3.5637   -0.4125    0.0000 O   0  0  0  0  0  0  0  0  0  0  0  0
   -2.1348   -0.4125    0.0000 C   0  0  0  0  0  0  0  0  0  0  0  0
   -1.4203   -0.8250    0.0000 C   0  0  0  0  0  0  0  0  0  0  0  0
  1  2  2  0        0
  2  3  1  0        0
  3  4  1  0        0
  4  5  1  0        0
  5  6  2  0        0
  6  7  1  0        0
  7  8  2  0        0
  8  9  1  0        0
  8 10  1  0        0
  5 10  1  0        0
  3 11  1  0        0
 11 12  2  0        0
 12 13  1  0        0
 13 14  2  0        0
 14 15  1  0        0
 15 16  1  0        0
 16 17  1  0        0
 16 18  1  0        0
 15 19  2  0        0
 14 20  1  0        0
 20 21  2  0        0
 11 21  1  0        0
  2 22  1  0        0
 22 23  2  0        0
 23 24  1  0        0
 23 25  1  0        0
 25 26  2  0        0
 26 27  1  0        0
 26 28  1  0        0
 28 29  2  0        0
 22 29  1  0        0
M  END
>  <PDHK IC50 nM>
132

>  <pIC50>
6.9

>  <paper>
Cho

>  <compound No.>
19r

$$$$
O=C(N(CC1=CC=C(C(F)(F)F)C=C1)C2=CC=C(C(N(C)C)=O)C=C2)C3=C(O)C=C(O)C=C3
  cdxl180110032016272D

 33 35  0  0  0  0  0  0  0  0999 V2000
   -1.0717   -2.8875    0.0000 O   0  0  0  0  0  0  0  0  0  0  0  0
   -1.0717   -2.0625    0.0000 C   0  0  0  0  0  0  0  0  0  0  0  0
   -0.3572   -1.6500    0.0000 N   0  0  0  0  0  0  0  0  0  0  0  0
    0.3572   -2.0625    0.0000 C   0  0  0  0  0  0  0  0  0  0  0  0
    1.0717   -1.6500    0.0000 C   0  0  0  0  0  0  0  0  0  0  0  0
    1.7862   -2.0625    0.0000 C   0  0  0  0  0  0  0  0  0  0  0  0
    2.5006   -1.6500    0.0000 C   0  0  0  0  0  0  0  0  0  0  0  0
    2.5006   -0.8250    0.0000 C   0  0  0  0  0  0  0  0  0  0  0  0
    3.2151   -0.4125    0.0000 C   0  0  0  0  0  0  0  0  0  0  0  0
    3.2151    0.4125    0.0000 F   0  0  0  0  0  0  0  0  0  0  0  0
    3.9296    0.0000    0.0000 F   0  0  0  0  0  0  0  0  0  0  0  0
    3.9296   -0.8250    0.0000 F   0  0  0  0  0  0  0  0  0  0  0  0
    1.7862   -0.4125    0.0000 C   0  0  0  0  0  0  0  0  0  0  0  0
    1.0717   -0.8250    0.0000 C   0  0  0  0  0  0  0  0  0  0  0  0
   -0.3572   -0.8250    0.0000 C   0  0  0  0  0  0  0  0  0  0  0  0
    0.3572   -0.4125    0.0000 C   0  0  0  0  0  0  0  0  0  0  0  0
    0.3572    0.4125    0.0000 C   0  0  0  0  0  0  0  0  0  0  0  0
   -0.3572    0.8250    0.0000 C   0  0  0  0  0  0  0  0  0  0  0  0
   -0.3572    1.6500    0.0000 C   0  0  0  0  0  0  0  0  0  0  0  0
   -1.0717    2.0625    0.0000 N   0  0  0  0  0  0  0  0  0  0  0  0
   -1.7862    1.6500    0.0000 C   0  0  0  0  0  0  0  0  0  0  0  0
   -1.0717    2.8875    0.0000 C   0  0  0  0  0  0  0  0  0  0  0  0
    0.3572    2.0625    0.0000 O   0  0  0  0  0  0  0  0  0  0  0  0
   -1.0717    0.4125    0.0000 C   0  0  0  0  0  0  0  0  0  0  0  0
   -1.0717   -0.4125    0.0000 C   0  0  0  0  0  0  0  0  0  0  0  0
   -1.7862   -1.6500    0.0000 C   0  0  0  0  0  0  0  0  0  0  0  0
   -2.5006   -2.0625    0.0000 C   0  0  0  0  0  0  0  0  0  0  0  0
   -2.5006   -2.8875    0.0000 O   0  0  0  0  0  0  0  0  0  0  0  0
   -3.2151   -1.6500    0.0000 C   0  0  0  0  0  0  0  0  0  0  0  0
   -3.2151   -0.8250    0.0000 C   0  0  0  0  0  0  0  0  0  0  0  0
   -3.9296   -0.4125    0.0000 O   0  0  0  0  0  0  0  0  0  0  0  0
   -2.5006   -0.4125    0.0000 C   0  0  0  0  0  0  0  0  0  0  0  0
   -1.7862   -0.8250    0.0000 C   0  0  0  0  0  0  0  0  0  0  0  0
  1  2  2  0        0
  2  3  1  0        0
  3  4  1  0        0
  4  5  1  0        0
  5  6  2  0        0
  6  7  1  0        0
  7  8  2  0        0
  8  9  1  0        0
  9 10  1  0        0
  9 11  1  0        0
  9 12  1  0        0
  8 13  1  0        0
 13 14  2  0        0
  5 14  1  0        0
  3 15  1  0        0
 15 16  2  0        0
 16 17  1  0        0
 17 18  2  0        0
 18 19  1  0        0
 19 20  1  0        0
 20 21  1  0        0
 20 22  1  0        0
 19 23  2  0        0
 18 24  1  0        0
 24 25  2  0        0
 15 25  1  0        0
  2 26  1  0        0
 26 27  2  0        0
 27 28  1  0        0
 27 29  1  0        0
 29 30  2  0        0
 30 31  1  0        0
 30 32  1  0        0
 32 33  2  0        0
 26 33  1  0        0
M  END
>  <PDHK IC50 nM>
140

>  <pIC50>
6.9

>  <paper>
Cho

>  <compound No.>
19d

$$$$
O=C(N(CC1=CC=C(O)C=C1)C2=CC=C(C(N(C)C)=O)C=C2)C3=C(O)C=C(O)C=C3
  cdxl180110032016272D

 30 32  0  0  0  0  0  0  0  0999 V2000
   -0.7145   -2.8875    0.0000 O   0  0  0  0  0  0  0  0  0  0  0  0
   -0.7145   -2.0625    0.0000 C   0  0  0  0  0  0  0  0  0  0  0  0
    0.0000   -1.6500    0.0000 N   0  0  0  0  0  0  0  0  0  0  0  0
    0.7145   -2.0625    0.0000 C   0  0  0  0  0  0  0  0  0  0  0  0
    1.4289   -1.6500    0.0000 C   0  0  0  0  0  0  0  0  0  0  0  0
    2.1434   -2.0625    0.0000 C   0  0  0  0  0  0  0  0  0  0  0  0
    2.8579   -1.6500    0.0000 C   0  0  0  0  0  0  0  0  0  0  0  0
    2.8579   -0.8250    0.0000 C   0  0  0  0  0  0  0  0  0  0  0  0
    3.5724   -0.4125    0.0000 O   0  0  0  0  0  0  0  0  0  0  0  0
    2.1434   -0.4125    0.0000 C   0  0  0  0  0  0  0  0  0  0  0  0
    1.4289   -0.8250    0.0000 C   0  0  0  0  0  0  0  0  0  0  0  0
    0.0000   -0.8250    0.0000 C   0  0  0  0  0  0  0  0  0  0  0  0
    0.7145   -0.4125    0.0000 C   0  0  0  0  0  0  0  0  0  0  0  0
    0.7145    0.4125    0.0000 C   0  0  0  0  0  0  0  0  0  0  0  0
   -0.0000    0.8250    0.0000 C   0  0  0  0  0  0  0  0  0  0  0  0
   -0.0000    1.6500    0.0000 C   0  0  0  0  0  0  0  0  0  0  0  0
    0.7145    2.0625    0.0000 N   0  0  0  0  0  0  0  0  0  0  0  0
    1.4289    1.6500    0.0000 C   0  0  0  0  0  0  0  0  0  0  0  0
    0.7145    2.8875    0.0000 C   0  0  0  0  0  0  0  0  0  0  0  0
   -0.7145    2.0625    0.0000 O   0  0  0  0  0  0  0  0  0  0  0  0
   -0.7145    0.4125    0.0000 C   0  0  0  0  0  0  0  0  0  0  0  0
   -0.7145   -0.4125    0.0000 C   0  0  0  0  0  0  0  0  0  0  0  0
   -1.4289   -1.6500    0.0000 C   0  0  0  0  0  0  0  0  0  0  0  0
   -2.1434   -2.0625    0.0000 C   0  0  0  0  0  0  0  0  0  0  0  0
   -2.1434   -2.8875    0.0000 O   0  0  0  0  0  0  0  0  0  0  0  0
   -2.8579   -1.6500    0.0000 C   0  0  0  0  0  0  0  0  0  0  0  0
   -2.8579   -0.8250    0.0000 C   0  0  0  0  0  0  0  0  0  0  0  0
   -3.5724   -0.4125    0.0000 O   0  0  0  0  0  0  0  0  0  0  0  0
   -2.1434   -0.4125    0.0000 C   0  0  0  0  0  0  0  0  0  0  0  0
   -1.4289   -0.8250    0.0000 C   0  0  0  0  0  0  0  0  0  0  0  0
  1  2  2  0        0
  2  3  1  0        0
  3  4  1  0        0
  4  5  1  0        0
  5  6  2  0        0
  6  7  1  0        0
  7  8  2  0        0
  8  9  1  0        0
  8 10  1  0        0
 10 11  2  0        0
  5 11  1  0        0
  3 12  1  0        0
 12 13  2  0        0
 13 14  1  0        0
 14 15  2  0        0
 15 16  1  0        0
 16 17  1  0        0
 17 18  1  0        0
 17 19  1  0        0
 16 20  2  0        0
 15 21  1  0        0
 21 22  2  0        0
 12 22  1  0        0
  2 23  1  0        0
 23 24  2  0        0
 24 25  1  0        0
 24 26  1  0        0
 26 27  2  0        0
 27 28  1  0        0
 27 29  1  0        0
 29 30  2  0        0
 23 30  1  0        0
M  END
>  <PDHK IC50 nM>
150

>  <pIC50>
6.8

>  <paper>
Cho

>  <compound No.>
19g

$$$$
O=C(N(CC1CCCCC1)C2=CC=C(C(N(C)C)=O)C=C2)C3=C(O)C=C(O)C=C3
  cdxl180110032016272D

 29 31  0  0  0  0  0  0  0  0999 V2000
   -0.3572   -2.8875    0.0000 O   0  0  0  0  0  0  0  0  0  0  0  0
   -0.3572   -2.0625    0.0000 C   0  0  0  0  0  0  0  0  0  0  0  0
    0.3572   -1.6500    0.0000 N   0  0  0  0  0  0  0  0  0  0  0  0
    1.0717   -2.0625    0.0000 C   0  0  0  0  0  0  0  0  0  0  0  0
    1.7862   -1.6500    0.0000 C   0  0  0  0  0  0  0  0  0  0  0  0
    2.5006   -2.0625    0.0000 C   0  0  0  0  0  0  0  0  0  0  0  0
    3.2151   -1.6500    0.0000 C   0  0  0  0  0  0  0  0  0  0  0  0
    3.2151   -0.8250    0.0000 C   0  0  0  0  0  0  0  0  0  0  0  0
    2.5006   -0.4125    0.0000 C   0  0  0  0  0  0  0  0  0  0  0  0
    1.7862   -0.8250    0.0000 C   0  0  0  0  0  0  0  0  0  0  0  0
    0.3572   -0.8250    0.0000 C   0  0  0  0  0  0  0  0  0  0  0  0
    1.0717   -0.4125    0.0000 C   0  0  0  0  0  0  0  0  0  0  0  0
    1.0717    0.4125    0.0000 C   0  0  0  0  0  0  0  0  0  0  0  0
    0.3572    0.8250    0.0000 C   0  0  0  0  0  0  0  0  0  0  0  0
    0.3572    1.6500    0.0000 C   0  0  0  0  0  0  0  0  0  0  0  0
    1.0717    2.0625    0.0000 N   0  0  0  0  0  0  0  0  0  0  0  0
    1.7862    1.6500    0.0000 C   0  0  0  0  0  0  0  0  0  0  0  0
    1.0717    2.8875    0.0000 C   0  0  0  0  0  0  0  0  0  0  0  0
   -0.3572    2.0625    0.0000 O   0  0  0  0  0  0  0  0  0  0  0  0
   -0.3572    0.4125    0.0000 C   0  0  0  0  0  0  0  0  0  0  0  0
   -0.3572   -0.4125    0.0000 C   0  0  0  0  0  0  0  0  0  0  0  0
   -1.0717   -1.6500    0.0000 C   0  0  0  0  0  0  0  0  0  0  0  0
   -1.7862   -2.0625    0.0000 C   0  0  0  0  0  0  0  0  0  0  0  0
   -1.7862   -2.8875    0.0000 O   0  0  0  0  0  0  0  0  0  0  0  0
   -2.5006   -1.6500    0.0000 C   0  0  0  0  0  0  0  0  0  0  0  0
   -2.5006   -0.8250    0.0000 C   0  0  0  0  0  0  0  0  0  0  0  0
   -3.2151   -0.4125    0.0000 O   0  0  0  0  0  0  0  0  0  0  0  0
   -1.7862   -0.4125    0.0000 C   0  0  0  0  0  0  0  0  0  0  0  0
   -1.0717   -0.8250    0.0000 C   0  0  0  0  0  0  0  0  0  0  0  0
  1  2  2  0        0
  2  3  1  0        0
  3  4  1  0        0
  4  5  1  0        0
  5  6  1  0        0
  6  7  1  0        0
  7  8  1  0        0
  8  9  1  0        0
  9 10  1  0        0
  5 10  1  0        0
  3 11  1  0        0
 11 12  2  0        0
 12 13  1  0        0
 13 14  2  0        0
 14 15  1  0        0
 15 16  1  0        0
 16 17  1  0        0
 16 18  1  0        0
 15 19  2  0        0
 14 20  1  0        0
 20 21  2  0        0
 11 21  1  0        0
  2 22  1  0        0
 22 23  2  0        0
 23 24  1  0        0
 23 25  1  0        0
 25 26  2  0        0
 26 27  1  0        0
 26 28  1  0        0
 28 29  2  0        0
 22 29  1  0        0
M  END
>  <PDHK IC50 nM>
184

>  <pIC50>
6.7

>  <paper>
Cho

>  <compound No.>
19j

$$$$
O=C(N(CC1=CC=C(Cl)O1)C2=CC=C(C(N(C)C)=O)C=C2)C3=C(O)C=C(O)C=C3
  cdxl180110032016272D

 29 31  0  0  0  0  0  0  0  0999 V2000
   -0.7059   -2.8875    0.0000 O   0  0  0  0  0  0  0  0  0  0  0  0
   -0.7059   -2.0625    0.0000 C   0  0  0  0  0  0  0  0  0  0  0  0
    0.0086   -1.6500    0.0000 N   0  0  0  0  0  0  0  0  0  0  0  0
    0.7231   -2.0625    0.0000 C   0  0  0  0  0  0  0  0  0  0  0  0
    1.4376   -1.6500    0.0000 C   0  0  0  0  0  0  0  0  0  0  0  0
    1.5238   -0.8295    0.0000 C   0  0  0  0  0  0  0  0  0  0  0  0
    2.3308   -0.6580    0.0000 C   0  0  0  0  0  0  0  0  0  0  0  0
    2.7433   -1.3725    0.0000 C   0  0  0  0  0  0  0  0  0  0  0  0
    3.5637   -1.4587    0.0000 Cl  0  0  0  0  0  0  0  0  0  0  0  0
    2.1912   -1.9856    0.0000 O   0  0  0  0  0  0  0  0  0  0  0  0
    0.0086   -0.8250    0.0000 C   0  0  0  0  0  0  0  0  0  0  0  0
    0.7231   -0.4125    0.0000 C   0  0  0  0  0  0  0  0  0  0  0  0
    0.7231    0.4125    0.0000 C   0  0  0  0  0  0  0  0  0  0  0  0
    0.0086    0.8250    0.0000 C   0  0  0  0  0  0  0  0  0  0  0  0
    0.0086    1.6500    0.0000 C   0  0  0  0  0  0  0  0  0  0  0  0
    0.7231    2.0625    0.0000 N   0  0  0  0  0  0  0  0  0  0  0  0
    1.4376    1.6500    0.0000 C   0  0  0  0  0  0  0  0  0  0  0  0
    0.7231    2.8875    0.0000 C   0  0  0  0  0  0  0  0  0  0  0  0
   -0.7059    2.0625    0.0000 O   0  0  0  0  0  0  0  0  0  0  0  0
   -0.7059    0.4125    0.0000 C   0  0  0  0  0  0  0  0  0  0  0  0
   -0.7059   -0.4125    0.0000 C   0  0  0  0  0  0  0  0  0  0  0  0
   -1.4203   -1.6500    0.0000 C   0  0  0  0  0  0  0  0  0  0  0  0
   -2.1348   -2.0625    0.0000 C   0  0  0  0  0  0  0  0  0  0  0  0
   -2.1348   -2.8875    0.0000 O   0  0  0  0  0  0  0  0  0  0  0  0
   -2.8493   -1.6500    0.0000 C   0  0  0  0  0  0  0  0  0  0  0  0
   -2.8493   -0.8250    0.0000 C   0  0  0  0  0  0  0  0  0  0  0  0
   -3.5637   -0.4125    0.0000 O   0  0  0  0  0  0  0  0  0  0  0  0
   -2.1348   -0.4125    0.0000 C   0  0  0  0  0  0  0  0  0  0  0  0
   -1.4203   -0.8250    0.0000 C   0  0  0  0  0  0  0  0  0  0  0  0
  1  2  2  0        0
  2  3  1  0        0
  3  4  1  0        0
  4  5  1  0        0
  5  6  2  0        0
  6  7  1  0        0
  7  8  2  0        0
  8  9  1  0        0
  8 10  1  0        0
  5 10  1  0        0
  3 11  1  0        0
 11 12  2  0        0
 12 13  1  0        0
 13 14  2  0        0
 14 15  1  0        0
 15 16  1  0        0
 16 17  1  0        0
 16 18  1  0        0
 15 19  2  0        0
 14 20  1  0        0
 20 21  2  0        0
 11 21  1  0        0
  2 22  1  0        0
 22 23  2  0        0
 23 24  1  0        0
 23 25  1  0        0
 25 26  2  0        0
 26 27  1  0        0
 26 28  1  0        0
 28 29  2  0        0
 22 29  1  0        0
M  END
>  <PDHK IC50 nM>
193

>  <pIC50>
6.7

>  <paper>
Cho

>  <compound No.>
19m

$$$$
O=C(N(CC1=CC=C(C#N)C=C1)C2=CC=C(C(N(C)C)=O)C=C2)C3=C(O)C=C(O)C=C3
  cdxl180110032016272D

 31 33  0  0  0  0  0  0  0  0999 V2000
   -1.0717   -2.8875    0.0000 O   0  0  0  0  0  0  0  0  0  0  0  0
   -1.0717   -2.0625    0.0000 C   0  0  0  0  0  0  0  0  0  0  0  0
   -0.3572   -1.6500    0.0000 N   0  0  0  0  0  0  0  0  0  0  0  0
    0.3572   -2.0625    0.0000 C   0  0  0  0  0  0  0  0  0  0  0  0
    1.0717   -1.6500    0.0000 C   0  0  0  0  0  0  0  0  0  0  0  0
    1.7862   -2.0625    0.0000 C   0  0  0  0  0  0  0  0  0  0  0  0
    2.5006   -1.6500    0.0000 C   0  0  0  0  0  0  0  0  0  0  0  0
    2.5006   -0.8250    0.0000 C   0  0  0  0  0  0  0  0  0  0  0  0
    3.2151   -0.4125    0.0000 C   0  0  0  0  0  0  0  0  0  0  0  0
    3.9296    0.0000    0.0000 N   0  0  0  0  0  0  0  0  0  0  0  0
    1.7862   -0.4125    0.0000 C   0  0  0  0  0  0  0  0  0  0  0  0
    1.0717   -0.8250    0.0000 C   0  0  0  0  0  0  0  0  0  0  0  0
   -0.3572   -0.8250    0.0000 C   0  0  0  0  0  0  0  0  0  0  0  0
    0.3572   -0.4125    0.0000 C   0  0  0  0  0  0  0  0  0  0  0  0
    0.3572    0.4125    0.0000 C   0  0  0  0  0  0  0  0  0  0  0  0
   -0.3572    0.8250    0.0000 C   0  0  0  0  0  0  0  0  0  0  0  0
   -0.3572    1.6500    0.0000 C   0  0  0  0  0  0  0  0  0  0  0  0
   -1.0717    2.0625    0.0000 N   0  0  0  0  0  0  0  0  0  0  0  0
   -1.7862    1.6500    0.0000 C   0  0  0  0  0  0  0  0  0  0  0  0
   -1.0717    2.8875    0.0000 C   0  0  0  0  0  0  0  0  0  0  0  0
    0.3572    2.0625    0.0000 O   0  0  0  0  0  0  0  0  0  0  0  0
   -1.0717    0.4125    0.0000 C   0  0  0  0  0  0  0  0  0  0  0  0
   -1.0717   -0.4125    0.0000 C   0  0  0  0  0  0  0  0  0  0  0  0
   -1.7862   -1.6500    0.0000 C   0  0  0  0  0  0  0  0  0  0  0  0
   -2.5006   -2.0625    0.0000 C   0  0  0  0  0  0  0  0  0  0  0  0
   -2.5006   -2.8875    0.0000 O   0  0  0  0  0  0  0  0  0  0  0  0
   -3.2151   -1.6500    0.0000 C   0  0  0  0  0  0  0  0  0  0  0  0
   -3.2151   -0.8250    0.0000 C   0  0  0  0  0  0  0  0  0  0  0  0
   -3.9296   -0.4125    0.0000 O   0  0  0  0  0  0  0  0  0  0  0  0
   -2.5006   -0.4125    0.0000 C   0  0  0  0  0  0  0  0  0  0  0  0
   -1.7862   -0.8250    0.0000 C   0  0  0  0  0  0  0  0  0  0  0  0
  1  2  2  0        0
  2  3  1  0        0
  3  4  1  0        0
  4  5  1  0        0
  5  6  2  0        0
  6  7  1  0        0
  7  8  2  0        0
  8  9  1  0        0
  9 10  3  0        0
  8 11  1  0        0
 11 12  2  0        0
  5 12  1  0        0
  3 13  1  0        0
 13 14  2  0        0
 14 15  1  0        0
 15 16  2  0        0
 16 17  1  0        0
 17 18  1  0        0
 18 19  1  0        0
 18 20  1  0        0
 17 21  2  0        0
 16 22  1  0        0
 22 23  2  0        0
 13 23  1  0        0
  2 24  1  0        0
 24 25  2  0        0
 25 26  1  0        0
 25 27  1  0        0
 27 28  2  0        0
 28 29  1  0        0
 28 30  1  0        0
 30 31  2  0        0
 24 31  1  0        0
M  END
>  <PDHK IC50 nM>
203

>  <pIC50>
6.7

>  <paper>
Cho

>  <compound No.>
19f

$$$$
O=C(N(CC1=CC=CC=C1)C2=CC=C(C(N(C)C)=O)C=C2)C3=C(O)C=C(O)C=C3
  cdxl180110032016272D

 29 31  0  0  0  0  0  0  0  0999 V2000
   -0.3572   -2.8875    0.0000 O   0  0  0  0  0  0  0  0  0  0  0  0
   -0.3572   -2.0625    0.0000 C   0  0  0  0  0  0  0  0  0  0  0  0
    0.3572   -1.6500    0.0000 N   0  0  0  0  0  0  0  0  0  0  0  0
    1.0717   -2.0625    0.0000 C   0  0  0  0  0  0  0  0  0  0  0  0
    1.7862   -1.6500    0.0000 C   0  0  0  0  0  0  0  0  0  0  0  0
    2.5006   -2.0625    0.0000 C   0  0  0  0  0  0  0  0  0  0  0  0
    3.2151   -1.6500    0.0000 C   0  0  0  0  0  0  0  0  0  0  0  0
    3.2151   -0.8250    0.0000 C   0  0  0  0  0  0  0  0  0  0  0  0
    2.5006   -0.4125    0.0000 C   0  0  0  0  0  0  0  0  0  0  0  0
    1.7862   -0.8250    0.0000 C   0  0  0  0  0  0  0  0  0  0  0  0
    0.3572   -0.8250    0.0000 C   0  0  0  0  0  0  0  0  0  0  0  0
    1.0717   -0.4125    0.0000 C   0  0  0  0  0  0  0  0  0  0  0  0
    1.0717    0.4125    0.0000 C   0  0  0  0  0  0  0  0  0  0  0  0
    0.3572    0.8250    0.0000 C   0  0  0  0  0  0  0  0  0  0  0  0
    0.3572    1.6500    0.0000 C   0  0  0  0  0  0  0  0  0  0  0  0
    1.0717    2.0625    0.0000 N   0  0  0  0  0  0  0  0  0  0  0  0
    1.7862    1.6500    0.0000 C   0  0  0  0  0  0  0  0  0  0  0  0
    1.0717    2.8875    0.0000 C   0  0  0  0  0  0  0  0  0  0  0  0
   -0.3572    2.0625    0.0000 O   0  0  0  0  0  0  0  0  0  0  0  0
   -0.3572    0.4125    0.0000 C   0  0  0  0  0  0  0  0  0  0  0  0
   -0.3572   -0.4125    0.0000 C   0  0  0  0  0  0  0  0  0  0  0  0
   -1.0717   -1.6500    0.0000 C   0  0  0  0  0  0  0  0  0  0  0  0
   -1.7862   -2.0625    0.0000 C   0  0  0  0  0  0  0  0  0  0  0  0
   -1.7862   -2.8875    0.0000 O   0  0  0  0  0  0  0  0  0  0  0  0
   -2.5006   -1.6500    0.0000 C   0  0  0  0  0  0  0  0  0  0  0  0
   -2.5006   -0.8250    0.0000 C   0  0  0  0  0  0  0  0  0  0  0  0
   -3.2151   -0.4125    0.0000 O   0  0  0  0  0  0  0  0  0  0  0  0
   -1.7862   -0.4125    0.0000 C   0  0  0  0  0  0  0  0  0  0  0  0
   -1.0717   -0.8250    0.0000 C   0  0  0  0  0  0  0  0  0  0  0  0
  1  2  2  0        0
  2  3  1  0        0
  3  4  1  0        0
  4  5  1  0        0
  5  6  2  0        0
  6  7  1  0        0
  7  8  2  0        0
  8  9  1  0        0
  9 10  2  0        0
  5 10  1  0        0
  3 11  1  0        0
 11 12  2  0        0
 12 13  1  0        0
 13 14  2  0        0
 14 15  1  0        0
 15 16  1  0        0
 16 17  1  0        0
 16 18  1  0        0
 15 19  2  0        0
 14 20  1  0        0
 20 21  2  0        0
 11 21  1  0        0
  2 22  1  0        0
 22 23  2  0        0
 23 24  1  0        0
 23 25  1  0        0
 25 26  2  0        0
 26 27  1  0        0
 26 28  1  0        0
 28 29  2  0        0
 22 29  1  0        0
M  END
>  <PDHK IC50 nM>
206

>  <pIC50>
6.7

>  <paper>
Cho

>  <compound No.>
19a

$$$$
O=C(N(CC1=CC=C(C)O1)C2=CC=C(C(N(C)C)=O)C=C2)C3=C(O)C=C(O)C=C3
  cdxl180110032016272D

 29 31  0  0  0  0  0  0  0  0999 V2000
   -0.7059   -2.8875    0.0000 O   0  0  0  0  0  0  0  0  0  0  0  0
   -0.7059   -2.0625    0.0000 C   0  0  0  0  0  0  0  0  0  0  0  0
    0.0086   -1.6500    0.0000 N   0  0  0  0  0  0  0  0  0  0  0  0
    0.7231   -2.0625    0.0000 C   0  0  0  0  0  0  0  0  0  0  0  0
    1.4376   -1.6500    0.0000 C   0  0  0  0  0  0  0  0  0  0  0  0
    1.5238   -0.8295    0.0000 C   0  0  0  0  0  0  0  0  0  0  0  0
    2.3308   -0.6580    0.0000 C   0  0  0  0  0  0  0  0  0  0  0  0
    2.7433   -1.3725    0.0000 C   0  0  0  0  0  0  0  0  0  0  0  0
    3.5637   -1.4587    0.0000 C   0  0  0  0  0  0  0  0  0  0  0  0
    2.1912   -1.9856    0.0000 O   0  0  0  0  0  0  0  0  0  0  0  0
    0.0086   -0.8250    0.0000 C   0  0  0  0  0  0  0  0  0  0  0  0
    0.7231   -0.4125    0.0000 C   0  0  0  0  0  0  0  0  0  0  0  0
    0.7231    0.4125    0.0000 C   0  0  0  0  0  0  0  0  0  0  0  0
    0.0086    0.8250    0.0000 C   0  0  0  0  0  0  0  0  0  0  0  0
    0.0086    1.6500    0.0000 C   0  0  0  0  0  0  0  0  0  0  0  0
    0.7231    2.0625    0.0000 N   0  0  0  0  0  0  0  0  0  0  0  0
    1.4376    1.6500    0.0000 C   0  0  0  0  0  0  0  0  0  0  0  0
    0.7231    2.8875    0.0000 C   0  0  0  0  0  0  0  0  0  0  0  0
   -0.7059    2.0625    0.0000 O   0  0  0  0  0  0  0  0  0  0  0  0
   -0.7059    0.4125    0.0000 C   0  0  0  0  0  0  0  0  0  0  0  0
   -0.7059   -0.4125    0.0000 C   0  0  0  0  0  0  0  0  0  0  0  0
   -1.4203   -1.6500    0.0000 C   0  0  0  0  0  0  0  0  0  0  0  0
   -2.1348   -2.0625    0.0000 C   0  0  0  0  0  0  0  0  0  0  0  0
   -2.1348   -2.8875    0.0000 O   0  0  0  0  0  0  0  0  0  0  0  0
   -2.8493   -1.6500    0.0000 C   0  0  0  0  0  0  0  0  0  0  0  0
   -2.8493   -0.8250    0.0000 C   0  0  0  0  0  0  0  0  0  0  0  0
   -3.5637   -0.4125    0.0000 O   0  0  0  0  0  0  0  0  0  0  0  0
   -2.1348   -0.4125    0.0000 C   0  0  0  0  0  0  0  0  0  0  0  0
   -1.4203   -0.8250    0.0000 C   0  0  0  0  0  0  0  0  0  0  0  0
  1  2  2  0        0
  2  3  1  0        0
  3  4  1  0        0
  4  5  1  0        0
  5  6  2  0        0
  6  7  1  0        0
  7  8  2  0        0
  8  9  1  0        0
  8 10  1  0        0
  5 10  1  0        0
  3 11  1  0        0
 11 12  2  0        0
 12 13  1  0        0
 13 14  2  0        0
 14 15  1  0        0
 15 16  1  0        0
 16 17  1  0        0
 16 18  1  0        0
 15 19  2  0        0
 14 20  1  0        0
 20 21  2  0        0
 11 21  1  0        0
  2 22  1  0        0
 22 23  2  0        0
 23 24  1  0        0
 23 25  1  0        0
 25 26  2  0        0
 26 27  1  0        0
 26 28  1  0        0
 28 29  2  0        0
 22 29  1  0        0
M  END
>  <PDHK IC50 nM>
252

>  <pIC50>
6.6

>  <paper>
Cho

>  <compound No.>
19l

$$$$
O=C(N(CC1=CC(C=CC=C2)=C2C=C1)C3=CC=C(C(N(C)C)=O)C=C3)C4=C(O)C=C(O)C=C4
  cdxl180110032016272D

 33 36  0  0  0  0  0  0  0  0999 V2000
    1.0717    2.8875    0.0000 O   0  0  0  0  0  0  0  0  0  0  0  0
    1.0717    2.0625    0.0000 C   0  0  0  0  0  0  0  0  0  0  0  0
    0.3572    1.6500    0.0000 N   0  0  0  0  0  0  0  0  0  0  0  0
   -0.3572    2.0625    0.0000 C   0  0  0  0  0  0  0  0  0  0  0  0
   -1.0717    1.6500    0.0000 C   0  0  0  0  0  0  0  0  0  0  0  0
   -1.7862    2.0625    0.0000 C   0  0  0  0  0  0  0  0  0  0  0  0
   -2.5006    1.6500    0.0000 C   0  0  0  0  0  0  0  0  0  0  0  0
   -3.2151    2.0625    0.0000 C   0  0  0  0  0  0  0  0  0  0  0  0
   -3.9296    1.6500    0.0000 C   0  0  0  0  0  0  0  0  0  0  0  0
   -3.9296    0.8250    0.0000 C   0  0  0  0  0  0  0  0  0  0  0  0
   -3.2151    0.4125    0.0000 C   0  0  0  0  0  0  0  0  0  0  0  0
   -2.5006    0.8250    0.0000 C   0  0  0  0  0  0  0  0  0  0  0  0
   -1.7862    0.4125    0.0000 C   0  0  0  0  0  0  0  0  0  0  0  0
   -1.0717    0.8250    0.0000 C   0  0  0  0  0  0  0  0  0  0  0  0
    0.3572    0.8250    0.0000 C   0  0  0  0  0  0  0  0  0  0  0  0
    1.0717    0.4125    0.0000 C   0  0  0  0  0  0  0  0  0  0  0  0
    1.0717   -0.4125    0.0000 C   0  0  0  0  0  0  0  0  0  0  0  0
    0.3572   -0.8250    0.0000 C   0  0  0  0  0  0  0  0  0  0  0  0
    0.3572   -1.6500    0.0000 C   0  0  0  0  0  0  0  0  0  0  0  0
    1.0717   -2.0625    0.0000 N   0  0  0  0  0  0  0  0  0  0  0  0
    1.7862   -1.6500    0.0000 C   0  0  0  0  0  0  0  0  0  0  0  0
    1.0717   -2.8875    0.0000 C   0  0  0  0  0  0  0  0  0  0  0  0
   -0.3572   -2.0625    0.0000 O   0  0  0  0  0  0  0  0  0  0  0  0
   -0.3572   -0.4125    0.0000 C   0  0  0  0  0  0  0  0  0  0  0  0
   -0.3572    0.4125    0.0000 C   0  0  0  0  0  0  0  0  0  0  0  0
    1.7862    1.6500    0.0000 C   0  0  0  0  0  0  0  0  0  0  0  0
    2.5006    2.0625    0.0000 C   0  0  0  0  0  0  0  0  0  0  0  0
    2.5006    2.8875    0.0000 O   0  0  0  0  0  0  0  0  0  0  0  0
    3.2151    1.6500    0.0000 C   0  0  0  0  0  0  0  0  0  0  0  0
    3.2151    0.8250    0.0000 C   0  0  0  0  0  0  0  0  0  0  0  0
    3.9296    0.4125    0.0000 O   0  0  0  0  0  0  0  0  0  0  0  0
    2.5006    0.4125    0.0000 C   0  0  0  0  0  0  0  0  0  0  0  0
    1.7862    0.8250    0.0000 C   0  0  0  0  0  0  0  0  0  0  0  0
  1  2  2  0        0
  2  3  1  0        0
  3  4  1  0        0
  4  5  1  0        0
  5  6  2  0        0
  6  7  1  0        0
  7  8  1  0        0
  8  9  2  0        0
  9 10  1  0        0
 10 11  2  0        0
  7 12  2  0        0
 11 12  1  0        0
 12 13  1  0        0
 13 14  2  0        0
  5 14  1  0        0
  3 15  1  0        0
 15 16  2  0        0
 16 17  1  0        0
 17 18  2  0        0
 18 19  1  0        0
 19 20  1  0        0
 20 21  1  0        0
 20 22  1  0        0
 19 23  2  0        0
 18 24  1  0        0
 24 25  2  0        0
 15 25  1  0        0
  2 26  1  0        0
 26 27  2  0        0
 27 28  1  0        0
 27 29  1  0        0
 29 30  2  0        0
 30 31  1  0        0
 30 32  1  0        0
 32 33  2  0        0
 26 33  1  0        0
M  END
>  <PDHK IC50 nM>
373

>  <pIC50>
6.4

>  <paper>
Cho

>  <compound No.>
19h

$$$$
O=C(N(CC1=CC=C(NC(C)=O)C=C1)C2=CC=C(C(N(C)C)=O)C=C2)C3=C(O)C=C(O)C=C3
  cdxl180110032016272D

 33 35  0  0  0  0  0  0  0  0999 V2000
   -1.4289   -2.8875    0.0000 O   0  0  0  0  0  0  0  0  0  0  0  0
   -1.4289   -2.0625    0.0000 C   0  0  0  0  0  0  0  0  0  0  0  0
   -0.7145   -1.6500    0.0000 N   0  0  0  0  0  0  0  0  0  0  0  0
    0.0000   -2.0625    0.0000 C   0  0  0  0  0  0  0  0  0  0  0  0
    0.7145   -1.6500    0.0000 C   0  0  0  0  0  0  0  0  0  0  0  0
    1.4289   -2.0625    0.0000 C   0  0  0  0  0  0  0  0  0  0  0  0
    2.1434   -1.6500    0.0000 C   0  0  0  0  0  0  0  0  0  0  0  0
    2.1434   -0.8250    0.0000 C   0  0  0  0  0  0  0  0  0  0  0  0
    2.8579   -0.4125    0.0000 N   0  0  0  0  0  0  0  0  0  0  0  0
    3.5724   -0.8250    0.0000 C   0  0  0  0  0  0  0  0  0  0  0  0
    4.2868   -0.4125    0.0000 C   0  0  0  0  0  0  0  0  0  0  0  0
    3.5724   -1.6500    0.0000 O   0  0  0  0  0  0  0  0  0  0  0  0
    1.4289   -0.4125    0.0000 C   0  0  0  0  0  0  0  0  0  0  0  0
    0.7145   -0.8250    0.0000 C   0  0  0  0  0  0  0  0  0  0  0  0
   -0.7145   -0.8250    0.0000 C   0  0  0  0  0  0  0  0  0  0  0  0
    0.0000   -0.4125    0.0000 C   0  0  0  0  0  0  0  0  0  0  0  0
    0.0000    0.4125    0.0000 C   0  0  0  0  0  0  0  0  0  0  0  0
   -0.7145    0.8250    0.0000 C   0  0  0  0  0  0  0  0  0  0  0  0
   -0.7145    1.6500    0.0000 C   0  0  0  0  0  0  0  0  0  0  0  0
   -1.4289    2.0625    0.0000 N   0  0  0  0  0  0  0  0  0  0  0  0
   -2.1434    1.6500    0.0000 C   0  0  0  0  0  0  0  0  0  0  0  0
   -1.4289    2.8875    0.0000 C   0  0  0  0  0  0  0  0  0  0  0  0
    0.0000    2.0625    0.0000 O   0  0  0  0  0  0  0  0  0  0  0  0
   -1.4289    0.4125    0.0000 C   0  0  0  0  0  0  0  0  0  0  0  0
   -1.4289   -0.4125    0.0000 C   0  0  0  0  0  0  0  0  0  0  0  0
   -2.1434   -1.6500    0.0000 C   0  0  0  0  0  0  0  0  0  0  0  0
   -2.8579   -2.0625    0.0000 C   0  0  0  0  0  0  0  0  0  0  0  0
   -2.8579   -2.8875    0.0000 O   0  0  0  0  0  0  0  0  0  0  0  0
   -3.5724   -1.6500    0.0000 C   0  0  0  0  0  0  0  0  0  0  0  0
   -3.5724   -0.8250    0.0000 C   0  0  0  0  0  0  0  0  0  0  0  0
   -4.2868   -0.4125    0.0000 O   0  0  0  0  0  0  0  0  0  0  0  0
   -2.8579   -0.4125    0.0000 C   0  0  0  0  0  0  0  0  0  0  0  0
   -2.1434   -0.8250    0.0000 C   0  0  0  0  0  0  0  0  0  0  0  0
  1  2  2  0        0
  2  3  1  0        0
  3  4  1  0        0
  4  5  1  0        0
  5  6  2  0        0
  6  7  1  0        0
  7  8  2  0        0
  8  9  1  0        0
  9 10  1  0        0
 10 11  1  0        0
 10 12  2  0        0
  8 13  1  0        0
 13 14  2  0        0
  5 14  1  0        0
  3 15  1  0        0
 15 16  2  0        0
 16 17  1  0        0
 17 18  2  0        0
 18 19  1  0        0
 19 20  1  0        0
 20 21  1  0        0
 20 22  1  0        0
 19 23  2  0        0
 18 24  1  0        0
 24 25  2  0        0
 15 25  1  0        0
  2 26  1  0        0
 26 27  2  0        0
 27 28  1  0        0
 27 29  1  0        0
 29 30  2  0        0
 30 31  1  0        0
 30 32  1  0        0
 32 33  2  0        0
 26 33  1  0        0
M  END
>  <PDHK IC50 nM>
503

>  <pIC50>
6.3

>  <paper>
Cho

>  <compound No.>
15d

$$$$
O=C(N(CC(C)(C)C)C1=CC=C(C(N(C)C)=O)C=C1)C2=C(O)C=C(O)C=C2
  cdxl180110032016272D

 27 28  0  0  0  0  0  0  0  0999 V2000
    0.0000   -2.8875    0.0000 O   0  0  0  0  0  0  0  0  0  0  0  0
    0.0000   -2.0625    0.0000 C   0  0  0  0  0  0  0  0  0  0  0  0
    0.7145   -1.6500    0.0000 N   0  0  0  0  0  0  0  0  0  0  0  0
    1.4289   -2.0625    0.0000 C   0  0  0  0  0  0  0  0  0  0  0  0
    2.1434   -1.6500    0.0000 C   0  0  0  0  0  0  0  0  0  0  0  0
    2.8579   -2.0625    0.0000 C   0  0  0  0  0  0  0  0  0  0  0  0
    2.8579   -1.2375    0.0000 C   0  0  0  0  0  0  0  0  0  0  0  0
    2.1434   -0.8250    0.0000 C   0  0  0  0  0  0  0  0  0  0  0  0
    0.7145   -0.8250    0.0000 C   0  0  0  0  0  0  0  0  0  0  0  0
    1.4289   -0.4125    0.0000 C   0  0  0  0  0  0  0  0  0  0  0  0
    1.4289    0.4125    0.0000 C   0  0  0  0  0  0  0  0  0  0  0  0
    0.7145    0.8250    0.0000 C   0  0  0  0  0  0  0  0  0  0  0  0
    0.7145    1.6500    0.0000 C   0  0  0  0  0  0  0  0  0  0  0  0
    1.4289    2.0625    0.0000 N   0  0  0  0  0  0  0  0  0  0  0  0
    2.1434    1.6500    0.0000 C   0  0  0  0  0  0  0  0  0  0  0  0
    1.4289    2.8875    0.0000 C   0  0  0  0  0  0  0  0  0  0  0  0
    0.0000    2.0625    0.0000 O   0  0  0  0  0  0  0  0  0  0  0  0
    0.0000    0.4125    0.0000 C   0  0  0  0  0  0  0  0  0  0  0  0
    0.0000   -0.4125    0.0000 C   0  0  0  0  0  0  0  0  0  0  0  0
   -0.7145   -1.6500    0.0000 C   0  0  0  0  0  0  0  0  0  0  0  0
   -1.4289   -2.0625    0.0000 C   0  0  0  0  0  0  0  0  0  0  0  0
   -1.4289   -2.8875    0.0000 O   0  0  0  0  0  0  0  0  0  0  0  0
   -2.1434   -1.6500    0.0000 C   0  0  0  0  0  0  0  0  0  0  0  0
   -2.1434   -0.8250    0.0000 C   0  0  0  0  0  0  0  0  0  0  0  0
   -2.8579   -0.4125    0.0000 O   0  0  0  0  0  0  0  0  0  0  0  0
   -1.4289   -0.4125    0.0000 C   0  0  0  0  0  0  0  0  0  0  0  0
   -0.7145   -0.8250    0.0000 C   0  0  0  0  0  0  0  0  0  0  0  0
  1  2  2  0        0
  2  3  1  0        0
  3  4  1  0        0
  4  5  1  0        0
  5  6  1  0        0
  5  7  1  0        0
  5  8  1  0        0
  3  9  1  0        0
  9 10  2  0        0
 10 11  1  0        0
 11 12  2  0        0
 12 13  1  0        0
 13 14  1  0        0
 14 15  1  0        0
 14 16  1  0        0
 13 17  2  0        0
 12 18  1  0        0
 18 19  2  0        0
  9 19  1  0        0
  2 20  1  0        0
 20 21  2  0        0
 21 22  1  0        0
 21 23  1  0        0
 23 24  2  0        0
 24 25  1  0        0
 24 26  1  0        0
 26 27  2  0        0
 20 27  1  0        0
M  END
>  <PDHK IC50 nM>
772

>  <pIC50>
6.1

>  <paper>
Cho

>  <compound No.>
19i

$$$$
O=C(N(CC1=CC=C(NC(C)=O)C=C1)C2=CC=C(C(N3CCCCC3)=O)C=C2)C4=C(O)C=C(O)C=C4
  cdxl180110032016272D

 36 39  0  0  0  0  0  0  0  0999 V2000
   -1.4289   -3.0938    0.0000 O   0  0  0  0  0  0  0  0  0  0  0  0
   -1.4289   -2.2687    0.0000 C   0  0  0  0  0  0  0  0  0  0  0  0
   -0.7145   -1.8562    0.0000 N   0  0  0  0  0  0  0  0  0  0  0  0
    0.0000   -2.2687    0.0000 C   0  0  0  0  0  0  0  0  0  0  0  0
    0.7145   -1.8562    0.0000 C   0  0  0  0  0  0  0  0  0  0  0  0
    1.4289   -2.2687    0.0000 C   0  0  0  0  0  0  0  0  0  0  0  0
    2.1434   -1.8562    0.0000 C   0  0  0  0  0  0  0  0  0  0  0  0
    2.1434   -1.0313    0.0000 C   0  0  0  0  0  0  0  0  0  0  0  0
    2.8579   -0.6188    0.0000 N   0  0  0  0  0  0  0  0  0  0  0  0
    3.5724   -1.0313    0.0000 C   0  0  0  0  0  0  0  0  0  0  0  0
    4.2868   -0.6188    0.0000 C   0  0  0  0  0  0  0  0  0  0  0  0
    3.5724   -1.8562    0.0000 O   0  0  0  0  0  0  0  0  0  0  0  0
    1.4289   -0.6188    0.0000 C   0  0  0  0  0  0  0  0  0  0  0  0
    0.7145   -1.0313    0.0000 C   0  0  0  0  0  0  0  0  0  0  0  0
   -0.7145   -1.0313    0.0000 C   0  0  0  0  0  0  0  0  0  0  0  0
    0.0000   -0.6188    0.0000 C   0  0  0  0  0  0  0  0  0  0  0  0
    0.0000    0.2062    0.0000 C   0  0  0  0  0  0  0  0  0  0  0  0
   -0.7145    0.6188    0.0000 C   0  0  0  0  0  0  0  0  0  0  0  0
   -0.7145    1.4438    0.0000 C   0  0  0  0  0  0  0  0  0  0  0  0
    0.0000    1.8562    0.0000 N   0  0  0  0  0  0  0  0  0  0  0  0
    0.7145    1.4438    0.0000 C   0  0  0  0  0  0  0  0  0  0  0  0
    1.4289    1.8562    0.0000 C   0  0  0  0  0  0  0  0  0  0  0  0
    1.4289    2.6812    0.0000 C   0  0  0  0  0  0  0  0  0  0  0  0
    0.7145    3.0938    0.0000 C   0  0  0  0  0  0  0  0  0  0  0  0
    0.0000    2.6812    0.0000 C   0  0  0  0  0  0  0  0  0  0  0  0
   -1.4289    1.8562    0.0000 O   0  0  0  0  0  0  0  0  0  0  0  0
   -1.4289    0.2062    0.0000 C   0  0  0  0  0  0  0  0  0  0  0  0
   -1.4289   -0.6188    0.0000 C   0  0  0  0  0  0  0  0  0  0  0  0
   -2.1434   -1.8562    0.0000 C   0  0  0  0  0  0  0  0  0  0  0  0
   -2.8579   -2.2687    0.0000 C   0  0  0  0  0  0  0  0  0  0  0  0
   -2.8579   -3.0938    0.0000 O   0  0  0  0  0  0  0  0  0  0  0  0
   -3.5724   -1.8562    0.0000 C   0  0  0  0  0  0  0  0  0  0  0  0
   -3.5724   -1.0313    0.0000 C   0  0  0  0  0  0  0  0  0  0  0  0
   -4.2868   -0.6188    0.0000 O   0  0  0  0  0  0  0  0  0  0  0  0
   -2.8579   -0.6188    0.0000 C   0  0  0  0  0  0  0  0  0  0  0  0
   -2.1434   -1.0313    0.0000 C   0  0  0  0  0  0  0  0  0  0  0  0
  1  2  2  0        0
  2  3  1  0        0
  3  4  1  0        0
  4  5  1  0        0
  5  6  2  0        0
  6  7  1  0        0
  7  8  2  0        0
  8  9  1  0        0
  9 10  1  0        0
 10 11  1  0        0
 10 12  2  0        0
  8 13  1  0        0
 13 14  2  0        0
  5 14  1  0        0
  3 15  1  0        0
 15 16  2  0        0
 16 17  1  0        0
 17 18  2  0        0
 18 19  1  0        0
 19 20  1  0        0
 20 21  1  0        0
 21 22  1  0        0
 22 23  1  0        0
 23 24  1  0        0
 24 25  1  0        0
 20 25  1  0        0
 19 26  2  0        0
 18 27  1  0        0
 27 28  2  0        0
 15 28  1  0        0
  2 29  1  0        0
 29 30  2  0        0
 30 31  1  0        0
 30 32  1  0        0
 32 33  2  0        0
 33 34  1  0        0
 33 35  1  0        0
 35 36  2  0        0
 29 36  1  0        0
M  END
>  <PDHK IC50 nM>
1620

>  <pIC50>
5.8

>  <paper>
Cho

>  <compound No.>
15e

$$$$
O=C(N(CC1=CC=C(NC(C)=O)C=C1)C2=CC=C(C(N3CCCC3)=O)C=C2)C4=C(O)C=C(O)C=C4
  cdxl180110032016272D

 35 38  0  0  0  0  0  0  0  0999 V2000
   -1.4289   -2.9710    0.0000 O   0  0  0  0  0  0  0  0  0  0  0  0
   -1.4289   -2.1460    0.0000 C   0  0  0  0  0  0  0  0  0  0  0  0
   -0.7145   -1.7335    0.0000 N   0  0  0  0  0  0  0  0  0  0  0  0
    0.0000   -2.1460    0.0000 C   0  0  0  0  0  0  0  0  0  0  0  0
    0.7145   -1.7335    0.0000 C   0  0  0  0  0  0  0  0  0  0  0  0
    1.4289   -2.1460    0.0000 C   0  0  0  0  0  0  0  0  0  0  0  0
    2.1434   -1.7335    0.0000 C   0  0  0  0  0  0  0  0  0  0  0  0
    2.1434   -0.9085    0.0000 C   0  0  0  0  0  0  0  0  0  0  0  0
    2.8579   -0.4960    0.0000 N   0  0  0  0  0  0  0  0  0  0  0  0
    3.5724   -0.9085    0.0000 C   0  0  0  0  0  0  0  0  0  0  0  0
    4.2868   -0.4960    0.0000 C   0  0  0  0  0  0  0  0  0  0  0  0
    3.5724   -1.7335    0.0000 O   0  0  0  0  0  0  0  0  0  0  0  0
    1.4289   -0.4960    0.0000 C   0  0  0  0  0  0  0  0  0  0  0  0
    0.7145   -0.9085    0.0000 C   0  0  0  0  0  0  0  0  0  0  0  0
   -0.7145   -0.9085    0.0000 C   0  0  0  0  0  0  0  0  0  0  0  0
    0.0000   -0.4960    0.0000 C   0  0  0  0  0  0  0  0  0  0  0  0
    0.0000    0.3290    0.0000 C   0  0  0  0  0  0  0  0  0  0  0  0
   -0.7145    0.7415    0.0000 C   0  0  0  0  0  0  0  0  0  0  0  0
   -0.7145    1.5665    0.0000 C   0  0  0  0  0  0  0  0  0  0  0  0
    0.0000    1.9790    0.0000 N   0  0  0  0  0  0  0  0  0  0  0  0
    0.7537    1.6434    0.0000 C   0  0  0  0  0  0  0  0  0  0  0  0
    1.3057    2.2565    0.0000 C   0  0  0  0  0  0  0  0  0  0  0  0
    0.8932    2.9710    0.0000 C   0  0  0  0  0  0  0  0  0  0  0  0
    0.0862    2.7995    0.0000 C   0  0  0  0  0  0  0  0  0  0  0  0
   -1.4289    1.9790    0.0000 O   0  0  0  0  0  0  0  0  0  0  0  0
   -1.4289    0.3290    0.0000 C   0  0  0  0  0  0  0  0  0  0  0  0
   -1.4289   -0.4960    0.0000 C   0  0  0  0  0  0  0  0  0  0  0  0
   -2.1434   -1.7335    0.0000 C   0  0  0  0  0  0  0  0  0  0  0  0
   -2.8579   -2.1460    0.0000 C   0  0  0  0  0  0  0  0  0  0  0  0
   -2.8579   -2.9710    0.0000 O   0  0  0  0  0  0  0  0  0  0  0  0
   -3.5724   -1.7335    0.0000 C   0  0  0  0  0  0  0  0  0  0  0  0
   -3.5724   -0.9085    0.0000 C   0  0  0  0  0  0  0  0  0  0  0  0
   -4.2868   -0.4960    0.0000 O   0  0  0  0  0  0  0  0  0  0  0  0
   -2.8579   -0.4960    0.0000 C   0  0  0  0  0  0  0  0  0  0  0  0
   -2.1434   -0.9085    0.0000 C   0  0  0  0  0  0  0  0  0  0  0  0
  1  2  2  0        0
  2  3  1  0        0
  3  4  1  0        0
  4  5  1  0        0
  5  6  2  0        0
  6  7  1  0        0
  7  8  2  0        0
  8  9  1  0        0
  9 10  1  0        0
 10 11  1  0        0
 10 12  2  0        0
  8 13  1  0        0
 13 14  2  0        0
  5 14  1  0        0
  3 15  1  0        0
 15 16  2  0        0
 16 17  1  0        0
 17 18  2  0        0
 18 19  1  0        0
 19 20  1  0        0
 20 21  1  0        0
 21 22  1  0        0
 22 23  1  0        0
 23 24  1  0        0
 20 24  1  0        0
 19 25  2  0        0
 18 26  1  0        0
 26 27  2  0        0
 15 27  1  0        0
  2 28  1  0        0
 28 29  2  0        0
 29 30  1  0        0
 29 31  1  0        0
 31 32  2  0        0
 32 33  1  0        0
 32 34  1  0        0
 34 35  2  0        0
 28 35  1  0        0
M  END
>  <PDHK IC50 nM>
1660

>  <pIC50>
5.8

>  <paper>
Cho

>  <compound No.>
15g

$$$$
O=C(N(CC1=CC=C(NC(C)=O)C=C1)C2=CC=C(C(NC3CC3)=O)C=C2)C4=C(O)C=C(O)C=C4
  cdxl180110032016272D

 34 37  0  0  0  0  0  0  0  0999 V2000
   -1.4289   -3.2447    0.0000 O   0  0  0  0  0  0  0  0  0  0  0  0
   -1.4289   -2.4197    0.0000 C   0  0  0  0  0  0  0  0  0  0  0  0
   -0.7145   -2.0072    0.0000 N   0  0  0  0  0  0  0  0  0  0  0  0
    0.0000   -2.4197    0.0000 C   0  0  0  0  0  0  0  0  0  0  0  0
    0.7145   -2.0072    0.0000 C   0  0  0  0  0  0  0  0  0  0  0  0
    1.4289   -2.4197    0.0000 C   0  0  0  0  0  0  0  0  0  0  0  0
    2.1434   -2.0072    0.0000 C   0  0  0  0  0  0  0  0  0  0  0  0
    2.1434   -1.1822    0.0000 C   0  0  0  0  0  0  0  0  0  0  0  0
    2.8579   -0.7697    0.0000 N   0  0  0  0  0  0  0  0  0  0  0  0
    3.5724   -1.1822    0.0000 C   0  0  0  0  0  0  0  0  0  0  0  0
    4.2868   -0.7697    0.0000 C   0  0  0  0  0  0  0  0  0  0  0  0
    3.5724   -2.0072    0.0000 O   0  0  0  0  0  0  0  0  0  0  0  0
    1.4289   -0.7697    0.0000 C   0  0  0  0  0  0  0  0  0  0  0  0
    0.7145   -1.1822    0.0000 C   0  0  0  0  0  0  0  0  0  0  0  0
   -0.7145   -1.1822    0.0000 C   0  0  0  0  0  0  0  0  0  0  0  0
    0.0000   -0.7697    0.0000 C   0  0  0  0  0  0  0  0  0  0  0  0
    0.0000    0.0553    0.0000 C   0  0  0  0  0  0  0  0  0  0  0  0
   -0.7145    0.4678    0.0000 C   0  0  0  0  0  0  0  0  0  0  0  0
   -0.7145    1.2928    0.0000 C   0  0  0  0  0  0  0  0  0  0  0  0
   -1.4289    1.7053    0.0000 N   0  0  0  0  0  0  0  0  0  0  0  0
   -1.4289    2.5303    0.0000 C   0  0  0  0  0  0  0  0  0  0  0  0
   -1.0164    3.2447    0.0000 C   0  0  0  0  0  0  0  0  0  0  0  0
   -1.8414    3.2447    0.0000 C   0  0  0  0  0  0  0  0  0  0  0  0
    0.0000    1.7053    0.0000 O   0  0  0  0  0  0  0  0  0  0  0  0
   -1.4289    0.0553    0.0000 C   0  0  0  0  0  0  0  0  0  0  0  0
   -1.4289   -0.7697    0.0000 C   0  0  0  0  0  0  0  0  0  0  0  0
   -2.1434   -2.0072    0.0000 C   0  0  0  0  0  0  0  0  0  0  0  0
   -2.8579   -2.4197    0.0000 C   0  0  0  0  0  0  0  0  0  0  0  0
   -2.8579   -3.2447    0.0000 O   0  0  0  0  0  0  0  0  0  0  0  0
   -3.5724   -2.0072    0.0000 C   0  0  0  0  0  0  0  0  0  0  0  0
   -3.5724   -1.1822    0.0000 C   0  0  0  0  0  0  0  0  0  0  0  0
   -4.2868   -0.7697    0.0000 O   0  0  0  0  0  0  0  0  0  0  0  0
   -2.8579   -0.7697    0.0000 C   0  0  0  0  0  0  0  0  0  0  0  0
   -2.1434   -1.1822    0.0000 C   0  0  0  0  0  0  0  0  0  0  0  0
  1  2  2  0        0
  2  3  1  0        0
  3  4  1  0        0
  4  5  1  0        0
  5  6  2  0        0
  6  7  1  0        0
  7  8  2  0        0
  8  9  1  0        0
  9 10  1  0        0
 10 11  1  0        0
 10 12  2  0        0
  8 13  1  0        0
 13 14  2  0        0
  5 14  1  0        0
  3 15  1  0        0
 15 16  2  0        0
 16 17  1  0        0
 17 18  2  0        0
 18 19  1  0        0
 19 20  1  0        0
 20 21  1  0        0
 21 22  1  0        0
 22 23  1  0        0
 21 23  1  0        0
 19 24  2  0        0
 18 25  1  0        0
 25 26  2  0        0
 15 26  1  0        0
  2 27  1  0        0
 27 28  2  0        0
 28 29  1  0        0
 28 30  1  0        0
 30 31  2  0        0
 31 32  1  0        0
 31 33  1  0        0
 33 34  2  0        0
 27 34  1  0        0
M  END
>  <PDHK IC50 nM>
1960

>  <pIC50>
5.7

>  <paper>
Cho

>  <compound No.>
15a

$$$$
O=C(N(CC1=CC=C(F)C=C1)C2=CC=C(C(N(C)C)=O)C=C2)C3=CC=C(O)C=C3
  cdxl180110032016272D

 29 31  0  0  0  0  0  0  0  0999 V2000
   -0.7145   -2.8875    0.0000 O   0  0  0  0  0  0  0  0  0  0  0  0
   -0.7145   -2.0625    0.0000 C   0  0  0  0  0  0  0  0  0  0  0  0
    0.0000   -1.6500    0.0000 N   0  0  0  0  0  0  0  0  0  0  0  0
    0.7145   -2.0625    0.0000 C   0  0  0  0  0  0  0  0  0  0  0  0
    1.4289   -1.6500    0.0000 C   0  0  0  0  0  0  0  0  0  0  0  0
    2.1434   -2.0625    0.0000 C   0  0  0  0  0  0  0  0  0  0  0  0
    2.8579   -1.6500    0.0000 C   0  0  0  0  0  0  0  0  0  0  0  0
    2.8579   -0.8250    0.0000 C   0  0  0  0  0  0  0  0  0  0  0  0
    3.5724   -0.4125    0.0000 F   0  0  0  0  0  0  0  0  0  0  0  0
    2.1434   -0.4125    0.0000 C   0  0  0  0  0  0  0  0  0  0  0  0
    1.4289   -0.8250    0.0000 C   0  0  0  0  0  0  0  0  0  0  0  0
    0.0000   -0.8250    0.0000 C   0  0  0  0  0  0  0  0  0  0  0  0
    0.7145   -0.4125    0.0000 C   0  0  0  0  0  0  0  0  0  0  0  0
    0.7145    0.4125    0.0000 C   0  0  0  0  0  0  0  0  0  0  0  0
    0.0000    0.8250    0.0000 C   0  0  0  0  0  0  0  0  0  0  0  0
    0.0000    1.6500    0.0000 C   0  0  0  0  0  0  0  0  0  0  0  0
    0.7145    2.0625    0.0000 N   0  0  0  0  0  0  0  0  0  0  0  0
    1.4289    1.6500    0.0000 C   0  0  0  0  0  0  0  0  0  0  0  0
    0.7145    2.8875    0.0000 C   0  0  0  0  0  0  0  0  0  0  0  0
   -0.7145    2.0625    0.0000 O   0  0  0  0  0  0  0  0  0  0  0  0
   -0.7145    0.4125    0.0000 C   0  0  0  0  0  0  0  0  0  0  0  0
   -0.7145   -0.4125    0.0000 C   0  0  0  0  0  0  0  0  0  0  0  0
   -1.4289   -1.6500    0.0000 C   0  0  0  0  0  0  0  0  0  0  0  0
   -1.4289   -0.8250    0.0000 C   0  0  0  0  0  0  0  0  0  0  0  0
   -2.1434   -0.4125    0.0000 C   0  0  0  0  0  0  0  0  0  0  0  0
   -2.8579   -0.8250    0.0000 C   0  0  0  0  0  0  0  0  0  0  0  0
   -3.5724   -0.4125    0.0000 O   0  0  0  0  0  0  0  0  0  0  0  0
   -2.8579   -1.6500    0.0000 C   0  0  0  0  0  0  0  0  0  0  0  0
   -2.1434   -2.0625    0.0000 C   0  0  0  0  0  0  0  0  0  0  0  0
  1  2  2  0        0
  2  3  1  0        0
  3  4  1  0        0
  4  5  1  0        0
  5  6  2  0        0
  6  7  1  0        0
  7  8  2  0        0
  8  9  1  0        0
  8 10  1  0        0
 10 11  2  0        0
  5 11  1  0        0
  3 12  1  0        0
 12 13  2  0        0
 13 14  1  0        0
 14 15  2  0        0
 15 16  1  0        0
 16 17  1  0        0
 17 18  1  0        0
 17 19  1  0        0
 16 20  2  0        0
 15 21  1  0        0
 21 22  2  0        0
 12 22  1  0        0
  2 23  1  0        0
 23 24  2  0        0
 24 25  1  0        0
 25 26  2  0        0
 26 27  1  0        0
 26 28  1  0        0
 28 29  2  0        0
 23 29  1  0        0
M  END
>  <PDHK IC50 nM>
2040

>  <pIC50>
5.7

>  <paper>
Cho

>  <compound No.>
21a

$$$$
O=C(N(CC1=CC=C(NC(C)=O)C=C1)C2=CC=C(C(N3CCOCC3)=O)C=C2)C4=C(O)C=C(O)C=C4
  cdxl180110032016272D

 36 39  0  0  0  0  0  0  0  0999 V2000
   -1.4289   -3.0938    0.0000 O   0  0  0  0  0  0  0  0  0  0  0  0
   -1.4289   -2.2687    0.0000 C   0  0  0  0  0  0  0  0  0  0  0  0
   -0.7145   -1.8562    0.0000 N   0  0  0  0  0  0  0  0  0  0  0  0
    0.0000   -2.2687    0.0000 C   0  0  0  0  0  0  0  0  0  0  0  0
    0.7145   -1.8562    0.0000 C   0  0  0  0  0  0  0  0  0  0  0  0
    1.4289   -2.2687    0.0000 C   0  0  0  0  0  0  0  0  0  0  0  0
    2.1434   -1.8562    0.0000 C   0  0  0  0  0  0  0  0  0  0  0  0
    2.1434   -1.0313    0.0000 C   0  0  0  0  0  0  0  0  0  0  0  0
    2.8579   -0.6188    0.0000 N   0  0  0  0  0  0  0  0  0  0  0  0
    3.5724   -1.0313    0.0000 C   0  0  0  0  0  0  0  0  0  0  0  0
    4.2868   -0.6188    0.0000 C   0  0  0  0  0  0  0  0  0  0  0  0
    3.5724   -1.8562    0.0000 O   0  0  0  0  0  0  0  0  0  0  0  0
    1.4289   -0.6188    0.0000 C   0  0  0  0  0  0  0  0  0  0  0  0
    0.7145   -1.0313    0.0000 C   0  0  0  0  0  0  0  0  0  0  0  0
   -0.7145   -1.0313    0.0000 C   0  0  0  0  0  0  0  0  0  0  0  0
    0.0000   -0.6188    0.0000 C   0  0  0  0  0  0  0  0  0  0  0  0
    0.0000    0.2062    0.0000 C   0  0  0  0  0  0  0  0  0  0  0  0
   -0.7145    0.6188    0.0000 C   0  0  0  0  0  0  0  0  0  0  0  0
   -0.7145    1.4438    0.0000 C   0  0  0  0  0  0  0  0  0  0  0  0
    0.0000    1.8562    0.0000 N   0  0  0  0  0  0  0  0  0  0  0  0
    0.7145    1.4438    0.0000 C   0  0  0  0  0  0  0  0  0  0  0  0
    1.4289    1.8562    0.0000 C   0  0  0  0  0  0  0  0  0  0  0  0
    1.4289    2.6812    0.0000 O   0  0  0  0  0  0  0  0  0  0  0  0
    0.7145    3.0938    0.0000 C   0  0  0  0  0  0  0  0  0  0  0  0
    0.0000    2.6812    0.0000 C   0  0  0  0  0  0  0  0  0  0  0  0
   -1.4289    1.8562    0.0000 O   0  0  0  0  0  0  0  0  0  0  0  0
   -1.4289    0.2062    0.0000 C   0  0  0  0  0  0  0  0  0  0  0  0
   -1.4289   -0.6188    0.0000 C   0  0  0  0  0  0  0  0  0  0  0  0
   -2.1434   -1.8562    0.0000 C   0  0  0  0  0  0  0  0  0  0  0  0
   -2.8579   -2.2687    0.0000 C   0  0  0  0  0  0  0  0  0  0  0  0
   -2.8579   -3.0938    0.0000 O   0  0  0  0  0  0  0  0  0  0  0  0
   -3.5724   -1.8562    0.0000 C   0  0  0  0  0  0  0  0  0  0  0  0
   -3.5724   -1.0313    0.0000 C   0  0  0  0  0  0  0  0  0  0  0  0
   -4.2868   -0.6188    0.0000 O   0  0  0  0  0  0  0  0  0  0  0  0
   -2.8579   -0.6188    0.0000 C   0  0  0  0  0  0  0  0  0  0  0  0
   -2.1434   -1.0313    0.0000 C   0  0  0  0  0  0  0  0  0  0  0  0
  1  2  2  0        0
  2  3  1  0        0
  3  4  1  0        0
  4  5  1  0        0
  5  6  2  0        0
  6  7  1  0        0
  7  8  2  0        0
  8  9  1  0        0
  9 10  1  0        0
 10 11  1  0        0
 10 12  2  0        0
  8 13  1  0        0
 13 14  2  0        0
  5 14  1  0        0
  3 15  1  0        0
 15 16  2  0        0
 16 17  1  0        0
 17 18  2  0        0
 18 19  1  0        0
 19 20  1  0        0
 20 21  1  0        0
 21 22  1  0        0
 22 23  1  0        0
 23 24  1  0        0
 24 25  1  0        0
 20 25  1  0        0
 19 26  2  0        0
 18 27  1  0        0
 27 28  2  0        0
 15 28  1  0        0
  2 29  1  0        0
 29 30  2  0        0
 30 31  1  0        0
 30 32  1  0        0
 32 33  2  0        0
 33 34  1  0        0
 33 35  1  0        0
 35 36  2  0        0
 29 36  1  0        0
M  END
>  <PDHK IC50 nM>
2660

>  <pIC50>
5.6

>  <paper>
Cho

>  <compound No.>
15f

$$$$
O=C(N(CC1=CC=C(NC(C)=O)C=C1)C2=CC=C(C(O)=O)C=C2)C3=C(O)C=C(O)C=C3
  cdxl180110032016272D

 31 33  0  0  0  0  0  0  0  0999 V2000
    1.4289   -2.4750    0.0000 O   0  0  0  0  0  0  0  0  0  0  0  0
    1.4289   -1.6500    0.0000 C   0  0  0  0  0  0  0  0  0  0  0  0
    0.7145   -1.2375    0.0000 N   0  0  0  0  0  0  0  0  0  0  0  0
   -0.0000   -1.6500    0.0000 C   0  0  0  0  0  0  0  0  0  0  0  0
   -0.7145   -1.2375    0.0000 C   0  0  0  0  0  0  0  0  0  0  0  0
   -1.4289   -1.6500    0.0000 C   0  0  0  0  0  0  0  0  0  0  0  0
   -2.1434   -1.2375    0.0000 C   0  0  0  0  0  0  0  0  0  0  0  0
   -2.1434   -0.4125    0.0000 C   0  0  0  0  0  0  0  0  0  0  0  0
   -2.8579    0.0000    0.0000 N   0  0  0  0  0  0  0  0  0  0  0  0
   -3.5724   -0.4125    0.0000 C   0  0  0  0  0  0  0  0  0  0  0  0
   -4.2868    0.0000    0.0000 C   0  0  0  0  0  0  0  0  0  0  0  0
   -3.5724   -1.2375    0.0000 O   0  0  0  0  0  0  0  0  0  0  0  0
   -1.4289    0.0000    0.0000 C   0  0  0  0  0  0  0  0  0  0  0  0
   -0.7145   -0.4125    0.0000 C   0  0  0  0  0  0  0  0  0  0  0  0
    0.7145   -0.4125    0.0000 C   0  0  0  0  0  0  0  0  0  0  0  0
   -0.0000    0.0000    0.0000 C   0  0  0  0  0  0  0  0  0  0  0  0
   -0.0000    0.8250    0.0000 C   0  0  0  0  0  0  0  0  0  0  0  0
    0.7145    1.2375    0.0000 C   0  0  0  0  0  0  0  0  0  0  0  0
    0.7145    2.0625    0.0000 C   0  0  0  0  0  0  0  0  0  0  0  0
    1.4289    2.4750    0.0000 O   0  0  0  0  0  0  0  0  0  0  0  0
   -0.0000    2.4750    0.0000 O   0  0  0  0  0  0  0  0  0  0  0  0
    1.4289    0.8250    0.0000 C   0  0  0  0  0  0  0  0  0  0  0  0
    1.4289    0.0000    0.0000 C   0  0  0  0  0  0  0  0  0  0  0  0
    2.1434   -1.2375    0.0000 C   0  0  0  0  0  0  0  0  0  0  0  0
    2.8579   -1.6500    0.0000 C   0  0  0  0  0  0  0  0  0  0  0  0
    2.8579   -2.4750    0.0000 O   0  0  0  0  0  0  0  0  0  0  0  0
    3.5724   -1.2375    0.0000 C   0  0  0  0  0  0  0  0  0  0  0  0
    3.5724   -0.4125    0.0000 C   0  0  0  0  0  0  0  0  0  0  0  0
    4.2868    0.0000    0.0000 O   0  0  0  0  0  0  0  0  0  0  0  0
    2.8579    0.0000    0.0000 C   0  0  0  0  0  0  0  0  0  0  0  0
    2.1434   -0.4125    0.0000 C   0  0  0  0  0  0  0  0  0  0  0  0
  1  2  2  0        0
  2  3  1  0        0
  3  4  1  0        0
  4  5  1  0        0
  5  6  2  0        0
  6  7  1  0        0
  7  8  2  0        0
  8  9  1  0        0
  9 10  1  0        0
 10 11  1  0        0
 10 12  2  0        0
  8 13  1  0        0
 13 14  2  0        0
  5 14  1  0        0
  3 15  1  0        0
 15 16  2  0        0
 16 17  1  0        0
 17 18  2  0        0
 18 19  1  0        0
 19 20  1  0        0
 19 21  2  0        0
 18 22  1  0        0
 22 23  2  0        0
 15 23  1  0        0
  2 24  1  0        0
 24 25  2  0        0
 25 26  1  0        0
 25 27  1  0        0
 27 28  2  0        0
 28 29  1  0        0
 28 30  1  0        0
 30 31  2  0        0
 24 31  1  0        0
M  END
>  <PDHK IC50 nM>
7220

>  <pIC50>
5.1

>  <paper>
Cho

>  <compound No.>
14

$$$$
O=C(N(CC1=CC=C(NC(C)=O)C=C1)C2=CC=C(C(NC)=O)C=C2)C3=C(O)C=C(O)C=C3
  cdxl180110032016272D

 32 34  0  0  0  0  0  0  0  0999 V2000
   -1.4289   -2.8875    0.0000 O   0  0  0  0  0  0  0  0  0  0  0  0
   -1.4289   -2.0625    0.0000 C   0  0  0  0  0  0  0  0  0  0  0  0
   -0.7145   -1.6500    0.0000 N   0  0  0  0  0  0  0  0  0  0  0  0
    0.0000   -2.0625    0.0000 C   0  0  0  0  0  0  0  0  0  0  0  0
    0.7145   -1.6500    0.0000 C   0  0  0  0  0  0  0  0  0  0  0  0
    1.4289   -2.0625    0.0000 C   0  0  0  0  0  0  0  0  0  0  0  0
    2.1434   -1.6500    0.0000 C   0  0  0  0  0  0  0  0  0  0  0  0
    2.1434   -0.8250    0.0000 C   0  0  0  0  0  0  0  0  0  0  0  0
    2.8579   -0.4125    0.0000 N   0  0  0  0  0  0  0  0  0  0  0  0
    3.5724   -0.8250    0.0000 C   0  0  0  0  0  0  0  0  0  0  0  0
    4.2868   -0.4125    0.0000 C   0  0  0  0  0  0  0  0  0  0  0  0
    3.5724   -1.6500    0.0000 O   0  0  0  0  0  0  0  0  0  0  0  0
    1.4289   -0.4125    0.0000 C   0  0  0  0  0  0  0  0  0  0  0  0
    0.7145   -0.8250    0.0000 C   0  0  0  0  0  0  0  0  0  0  0  0
   -0.7145   -0.8250    0.0000 C   0  0  0  0  0  0  0  0  0  0  0  0
    0.0000   -0.4125    0.0000 C   0  0  0  0  0  0  0  0  0  0  0  0
    0.0000    0.4125    0.0000 C   0  0  0  0  0  0  0  0  0  0  0  0
   -0.7145    0.8250    0.0000 C   0  0  0  0  0  0  0  0  0  0  0  0
   -0.7145    1.6500    0.0000 C   0  0  0  0  0  0  0  0  0  0  0  0
   -1.4289    2.0625    0.0000 N   0  0  0  0  0  0  0  0  0  0  0  0
   -1.4289    2.8875    0.0000 C   0  0  0  0  0  0  0  0  0  0  0  0
    0.0000    2.0625    0.0000 O   0  0  0  0  0  0  0  0  0  0  0  0
   -1.4289    0.4125    0.0000 C   0  0  0  0  0  0  0  0  0  0  0  0
   -1.4289   -0.4125    0.0000 C   0  0  0  0  0  0  0  0  0  0  0  0
   -2.1434   -1.6500    0.0000 C   0  0  0  0  0  0  0  0  0  0  0  0
   -2.8579   -2.0625    0.0000 C   0  0  0  0  0  0  0  0  0  0  0  0
   -2.8579   -2.8875    0.0000 O   0  0  0  0  0  0  0  0  0  0  0  0
   -3.5724   -1.6500    0.0000 C   0  0  0  0  0  0  0  0  0  0  0  0
   -3.5724   -0.8250    0.0000 C   0  0  0  0  0  0  0  0  0  0  0  0
   -4.2868   -0.4125    0.0000 O   0  0  0  0  0  0  0  0  0  0  0  0
   -2.8579   -0.4125    0.0000 C   0  0  0  0  0  0  0  0  0  0  0  0
   -2.1434   -0.8250    0.0000 C   0  0  0  0  0  0  0  0  0  0  0  0
  1  2  2  0        0
  2  3  1  0        0
  3  4  1  0        0
  4  5  1  0        0
  5  6  2  0        0
  6  7  1  0        0
  7  8  2  0        0
  8  9  1  0        0
  9 10  1  0        0
 10 11  1  0        0
 10 12  2  0        0
  8 13  1  0        0
 13 14  2  0        0
  5 14  1  0        0
  3 15  1  0        0
 15 16  2  0        0
 16 17  1  0        0
 17 18  2  0        0
 18 19  1  0        0
 19 20  1  0        0
 20 21  1  0        0
 19 22  2  0        0
 18 23  1  0        0
 23 24  2  0        0
 15 24  1  0        0
  2 25  1  0        0
 25 26  2  0        0
 26 27  1  0        0
 26 28  1  0        0
 28 29  2  0        0
 29 30  1  0        0
 29 31  1  0        0
 31 32  2  0        0
 25 32  1  0        0
M  END
>  <PDHK IC50 nM>
8590

>  <pIC50>
5.1

>  <paper>
Cho

>  <compound No.>
15b

$$$$
O=C(N(CC1=CC=C(NC(C)=O)C=C1)C2=CC=C(C(NCCO)=O)C=C2)C3=C(O)C=C(O)C=C3
  cdxl180110032016272D

 34 36  0  0  0  0  0  0  0  0999 V2000
   -0.7145   -2.4750    0.0000 O   0  0  0  0  0  0  0  0  0  0  0  0
   -1.4289   -2.0625    0.0000 C   0  0  0  0  0  0  0  0  0  0  0  0
   -1.4289   -1.2375    0.0000 N   0  0  0  0  0  0  0  0  0  0  0  0
   -2.1434   -0.8250    0.0000 C   0  0  0  0  0  0  0  0  0  0  0  0
   -2.1434    0.0000    0.0000 C   0  0  0  0  0  0  0  0  0  0  0  0
   -2.8579    0.4125    0.0000 C   0  0  0  0  0  0  0  0  0  0  0  0
   -2.8579    1.2375    0.0000 C   0  0  0  0  0  0  0  0  0  0  0  0
   -2.1434    1.6500    0.0000 C   0  0  0  0  0  0  0  0  0  0  0  0
   -2.1434    2.4750    0.0000 N   0  0  0  0  0  0  0  0  0  0  0  0
   -2.8579    2.8875    0.0000 C   0  0  0  0  0  0  0  0  0  0  0  0
   -3.5724    2.4750    0.0000 C   0  0  0  0  0  0  0  0  0  0  0  0
   -2.8579    3.7125    0.0000 O   0  0  0  0  0  0  0  0  0  0  0  0
   -1.4289    1.2375    0.0000 C   0  0  0  0  0  0  0  0  0  0  0  0
   -1.4289    0.4125    0.0000 C   0  0  0  0  0  0  0  0  0  0  0  0
   -0.7145   -0.8250    0.0000 C   0  0  0  0  0  0  0  0  0  0  0  0
   -0.7145    0.0000    0.0000 C   0  0  0  0  0  0  0  0  0  0  0  0
   -0.0000    0.4125    0.0000 C   0  0  0  0  0  0  0  0  0  0  0  0
    0.7145    0.0000    0.0000 C   0  0  0  0  0  0  0  0  0  0  0  0
    1.4289    0.4125    0.0000 C   0  0  0  0  0  0  0  0  0  0  0  0
    2.1434    0.0000    0.0000 N   0  0  0  0  0  0  0  0  0  0  0  0
    2.8579    0.4125    0.0000 C   0  0  0  0  0  0  0  0  0  0  0  0
    3.5724    0.0000    0.0000 C   0  0  0  0  0  0  0  0  0  0  0  0
    4.2868    0.4125    0.0000 O   0  0  0  0  0  0  0  0  0  0  0  0
    1.4289    1.2375    0.0000 O   0  0  0  0  0  0  0  0  0  0  0  0
    0.7145   -0.8250    0.0000 C   0  0  0  0  0  0  0  0  0  0  0  0
   -0.0000   -1.2375    0.0000 C   0  0  0  0  0  0  0  0  0  0  0  0
   -2.1434   -2.4750    0.0000 C   0  0  0  0  0  0  0  0  0  0  0  0
   -2.1434   -3.3000    0.0000 C   0  0  0  0  0  0  0  0  0  0  0  0
   -1.4289   -3.7125    0.0000 O   0  0  0  0  0  0  0  0  0  0  0  0
   -2.8579   -3.7125    0.0000 C   0  0  0  0  0  0  0  0  0  0  0  0
   -3.5724   -3.3000    0.0000 C   0  0  0  0  0  0  0  0  0  0  0  0
   -4.2868   -3.7125    0.0000 O   0  0  0  0  0  0  0  0  0  0  0  0
   -3.5724   -2.4750    0.0000 C   0  0  0  0  0  0  0  0  0  0  0  0
   -2.8579   -2.0625    0.0000 C   0  0  0  0  0  0  0  0  0  0  0  0
  1  2  2  0        0
  2  3  1  0        0
  3  4  1  0        0
  4  5  1  0        0
  5  6  2  0        0
  6  7  1  0        0
  7  8  2  0        0
  8  9  1  0        0
  9 10  1  0        0
 10 11  1  0        0
 10 12  2  0        0
  8 13  1  0        0
 13 14  2  0        0
  5 14  1  0        0
  3 15  1  0        0
 15 16  2  0        0
 16 17  1  0        0
 17 18  2  0        0
 18 19  1  0        0
 19 20  1  0        0
 20 21  1  0        0
 21 22  1  0        0
 22 23  1  0        0
 19 24  2  0        0
 18 25  1  0        0
 25 26  2  0        0
 15 26  1  0        0
  2 27  1  0        0
 27 28  2  0        0
 28 29  1  0        0
 28 30  1  0        0
 30 31  2  0        0
 31 32  1  0        0
 31 33  1  0        0
 33 34  2  0        0
 27 34  1  0        0
M  END
>  <PDHK IC50 nM>
9910

>  <pIC50>
5.0

>  <paper>
Cho

>  <compound No.>
15c

$$$$
O=C(N(CC1=CC=C(F)C=C1)C2=CC=C(C(N(C)C)=O)C=C2)C3=C(O)C=CC=C3
  cdxl180110032016272D

 29 31  0  0  0  0  0  0  0  0999 V2000
   -1.0717   -2.8875    0.0000 O   0  0  0  0  0  0  0  0  0  0  0  0
   -1.0717   -2.0625    0.0000 C   0  0  0  0  0  0  0  0  0  0  0  0
   -0.3572   -1.6500    0.0000 N   0  0  0  0  0  0  0  0  0  0  0  0
    0.3572   -2.0625    0.0000 C   0  0  0  0  0  0  0  0  0  0  0  0
    1.0717   -1.6500    0.0000 C   0  0  0  0  0  0  0  0  0  0  0  0
    1.7862   -2.0625    0.0000 C   0  0  0  0  0  0  0  0  0  0  0  0
    2.5006   -1.6500    0.0000 C   0  0  0  0  0  0  0  0  0  0  0  0
    2.5006   -0.8250    0.0000 C   0  0  0  0  0  0  0  0  0  0  0  0
    3.2151   -0.4125    0.0000 F   0  0  0  0  0  0  0  0  0  0  0  0
    1.7862   -0.4125    0.0000 C   0  0  0  0  0  0  0  0  0  0  0  0
    1.0717   -0.8250    0.0000 C   0  0  0  0  0  0  0  0  0  0  0  0
   -0.3572   -0.8250    0.0000 C   0  0  0  0  0  0  0  0  0  0  0  0
    0.3572   -0.4125    0.0000 C   0  0  0  0  0  0  0  0  0  0  0  0
    0.3572    0.4125    0.0000 C   0  0  0  0  0  0  0  0  0  0  0  0
   -0.3572    0.8250    0.0000 C   0  0  0  0  0  0  0  0  0  0  0  0
   -0.3572    1.6500    0.0000 C   0  0  0  0  0  0  0  0  0  0  0  0
   -1.0717    2.0625    0.0000 N   0  0  0  0  0  0  0  0  0  0  0  0
   -1.7862    1.6500    0.0000 C   0  0  0  0  0  0  0  0  0  0  0  0
   -1.0717    2.8875    0.0000 C   0  0  0  0  0  0  0  0  0  0  0  0
    0.3572    2.0625    0.0000 O   0  0  0  0  0  0  0  0  0  0  0  0
   -1.0717    0.4125    0.0000 C   0  0  0  0  0  0  0  0  0  0  0  0
   -1.0717   -0.4125    0.0000 C   0  0  0  0  0  0  0  0  0  0  0  0
   -1.7862   -1.6500    0.0000 C   0  0  0  0  0  0  0  0  0  0  0  0
   -2.5006   -2.0625    0.0000 C   0  0  0  0  0  0  0  0  0  0  0  0
   -2.5006   -2.8875    0.0000 O   0  0  0  0  0  0  0  0  0  0  0  0
   -3.2151   -1.6500    0.0000 C   0  0  0  0  0  0  0  0  0  0  0  0
   -3.2151   -0.8250    0.0000 C   0  0  0  0  0  0  0  0  0  0  0  0
   -2.5006   -0.4125    0.0000 C   0  0  0  0  0  0  0  0  0  0  0  0
   -1.7862   -0.8250    0.0000 C   0  0  0  0  0  0  0  0  0  0  0  0
  1  2  2  0        0
  2  3  1  0        0
  3  4  1  0        0
  4  5  1  0        0
  5  6  2  0        0
  6  7  1  0        0
  7  8  2  0        0
  8  9  1  0        0
  8 10  1  0        0
 10 11  2  0        0
  5 11  1  0        0
  3 12  1  0        0
 12 13  2  0        0
 13 14  1  0        0
 14 15  2  0        0
 15 16  1  0        0
 16 17  1  0        0
 17 18  1  0        0
 17 19  1  0        0
 16 20  2  0        0
 15 21  1  0        0
 21 22  2  0        0
 12 22  1  0        0
  2 23  1  0        0
 23 24  2  0        0
 24 25  1  0        0
 24 26  1  0        0
 26 27  2  0        0
 27 28  1  0        0
 28 29  2  0        0
 23 29  1  0        0
M  END
>  <PDHK IC50 nM>
10000

>  <pIC50>
5.0

>  <paper>
Cho

>  <compound No.>
21b

$$$$
C14H13NO5S
  cdxl180110032016272D

 21 23  0  0  0  0  0  0  0  0999 V2000
    0.7725    1.5938    0.0000 C   0  0  0  0  0  0  0  0  0  0  0  0
    0.7725    0.7688    0.0000 C   0  0  0  0  0  0  0  0  0  0  0  0
    1.4869    0.3563    0.0000 C   0  0  0  0  0  0  0  0  0  0  0  0
    2.2014    0.7688    0.0000 C   0  0  0  0  0  0  0  0  0  0  0  0
    2.2014    1.5938    0.0000 C   0  0  0  0  0  0  0  0  0  0  0  0
    1.4869    2.0063    0.0000 C   0  0  0  0  0  0  0  0  0  0  0  0
   -0.0122    1.8487    0.0000 C   0  0  0  0  0  0  0  0  0  0  0  0
   -0.4971    1.1813    0.0000 N   0  0  0  0  0  0  0  0  0  0  0  0
   -0.0122    0.5138    0.0000 C   0  0  0  0  0  0  0  0  0  0  0  0
   -1.3221    1.1813    0.0000 S   0  0  0  0  0  0  0  0  0  0  0  0
   -1.5356    1.9782    0.0000 O   0  0  0  0  0  0  0  0  0  0  0  0
   -2.1190    1.3948    0.0000 O   0  0  0  0  0  0  0  0  0  0  0  0
   -1.5356    0.3844    0.0000 C   0  0  0  0  0  0  0  0  0  0  0  0
   -2.3325    0.1709    0.0000 C   0  0  0  0  0  0  0  0  0  0  0  0
   -2.5460   -0.6260    0.0000 C   0  0  0  0  0  0  0  0  0  0  0  0
   -1.9627   -1.2094    0.0000 C   0  0  0  0  0  0  0  0  0  0  0  0
   -1.1658   -0.9959    0.0000 C   0  0  0  0  0  0  0  0  0  0  0  0
   -0.9523   -0.1990    0.0000 C   0  0  0  0  0  0  0  0  0  0  0  0
   -2.1762   -2.0063    0.0000 O   0  0  0  0  0  0  0  0  0  0  0  0
   -2.9159    0.7542    0.0000 O   0  0  0  0  0  0  0  0  0  0  0  0
    2.9159    0.3563    0.0000 O   0  0  0  0  0  0  0  0  0  0  0  0
  1  2  2  0        0
  2  3  1  0        0
  3  4  2  0        0
  4  5  1  0        0
  5  6  2  0        0
  6  1  1  0        0
  1  7  1  0        0
  7  8  1  0        0
  8  9  1  0        0
  9  2  1  0        0
  8 10  1  0        0
 10 11  2  0        0
 10 12  2  0        0
 10 13  1  0        0
 13 14  2  0        0
 14 15  1  0        0
 15 16  2  0        0
 16 17  1  0        0
 17 18  2  0        0
 18 13  1  0        0
 16 19  1  0        0
 14 20  1  0        0
  4 21  1  0        0
M  END
>  <PDHK IC50 nM>
570

>  <pIC50>
6.2

>  <paper>
Tso_2017

>  <compound No.>
1

$$$$
C14H13NO6S
  cdxl180110032016272D

 22 24  0  0  0  0  0  0  0  0999 V2000
    0.7725    1.1813    0.0000 C   0  0  0  0  0  0  0  0  0  0  0  0
    0.7725    0.3563    0.0000 C   0  0  0  0  0  0  0  0  0  0  0  0
    1.4869   -0.0562    0.0000 C   0  0  0  0  0  0  0  0  0  0  0  0
    2.2014    0.3563    0.0000 C   0  0  0  0  0  0  0  0  0  0  0  0
    2.2014    1.1813    0.0000 C   0  0  0  0  0  0  0  0  0  0  0  0
    1.4869    1.5938    0.0000 C   0  0  0  0  0  0  0  0  0  0  0  0
   -0.0122    1.4362    0.0000 C   0  0  0  0  0  0  0  0  0  0  0  0
   -0.4971    0.7688    0.0000 N   0  0  0  0  0  0  0  0  0  0  0  0
   -0.0122    0.1013    0.0000 C   0  0  0  0  0  0  0  0  0  0  0  0
   -1.3221    0.7688    0.0000 S   0  0  0  0  0  0  0  0  0  0  0  0
   -1.5356    1.5657    0.0000 O   0  0  0  0  0  0  0  0  0  0  0  0
   -2.1190    0.9823    0.0000 O   0  0  0  0  0  0  0  0  0  0  0  0
   -1.5356   -0.0281    0.0000 C   0  0  0  0  0  0  0  0  0  0  0  0
   -2.3325   -0.2416    0.0000 C   0  0  0  0  0  0  0  0  0  0  0  0
   -2.5460   -1.0385    0.0000 C   0  0  0  0  0  0  0  0  0  0  0  0
   -1.9627   -1.6219    0.0000 C   0  0  0  0  0  0  0  0  0  0  0  0
   -1.1658   -1.4084    0.0000 C   0  0  0  0  0  0  0  0  0  0  0  0
   -0.9523   -0.6115    0.0000 C   0  0  0  0  0  0  0  0  0  0  0  0
   -2.1762   -2.4188    0.0000 O   0  0  0  0  0  0  0  0  0  0  0  0
   -2.9159    0.3417    0.0000 O   0  0  0  0  0  0  0  0  0  0  0  0
    2.9159   -0.0562    0.0000 O   0  0  0  0  0  0  0  0  0  0  0  0
    1.4869    2.4188    0.0000 O   0  0  0  0  0  0  0  0  0  0  0  0
  1  2  2  0        0
  2  3  1  0        0
  3  4  2  0        0
  4  5  1  0        0
  5  6  2  0        0
  6  1  1  0        0
  1  7  1  0        0
  7  8  1  0        0
  8  9  1  0        0
  9  2  1  0        0
  8 10  1  0        0
 10 11  2  0        0
 10 12  2  0        0
 10 13  1  0        0
 13 14  2  0        0
 14 15  1  0        0
 15 16  2  0        0
 16 17  1  0        0
 17 18  2  0        0
 18 13  1  0        0
 16 19  1  0        0
 14 20  1  0        0
  4 21  1  0        0
  6 22  1  0        0
M  END
>  <PDHK IC50 nM>
456

>  <pIC50>
6.3

>  <paper>
Tso_2017

>  <compound No.>
2

$$$$
C14H14N2O4S
  cdxl180110032016272D

 21 23  0  0  0  0  0  0  0  0999 V2000
    0.7725    1.5938    0.0000 C   0  0  0  0  0  0  0  0  0  0  0  0
    0.7725    0.7688    0.0000 C   0  0  0  0  0  0  0  0  0  0  0  0
    1.4869    0.3563    0.0000 C   0  0  0  0  0  0  0  0  0  0  0  0
    2.2014    0.7688    0.0000 C   0  0  0  0  0  0  0  0  0  0  0  0
    2.2014    1.5938    0.0000 C   0  0  0  0  0  0  0  0  0  0  0  0
    1.4869    2.0063    0.0000 C   0  0  0  0  0  0  0  0  0  0  0  0
   -0.0122    1.8487    0.0000 C   0  0  0  0  0  0  0  0  0  0  0  0
   -0.4971    1.1813    0.0000 N   0  0  0  0  0  0  0  0  0  0  0  0
   -0.0122    0.5138    0.0000 C   0  0  0  0  0  0  0  0  0  0  0  0
   -1.3221    1.1813    0.0000 S   0  0  0  0  0  0  0  0  0  0  0  0
   -1.5356    1.9782    0.0000 O   0  0  0  0  0  0  0  0  0  0  0  0
   -2.1190    1.3948    0.0000 O   0  0  0  0  0  0  0  0  0  0  0  0
   -1.5356    0.3844    0.0000 C   0  0  0  0  0  0  0  0  0  0  0  0
   -2.3325    0.1709    0.0000 C   0  0  0  0  0  0  0  0  0  0  0  0
   -2.5460   -0.6260    0.0000 C   0  0  0  0  0  0  0  0  0  0  0  0
   -1.9627   -1.2094    0.0000 C   0  0  0  0  0  0  0  0  0  0  0  0
   -1.1658   -0.9959    0.0000 C   0  0  0  0  0  0  0  0  0  0  0  0
   -0.9523   -0.1990    0.0000 C   0  0  0  0  0  0  0  0  0  0  0  0
   -2.1762   -2.0063    0.0000 O   0  0  0  0  0  0  0  0  0  0  0  0
   -2.9159    0.7542    0.0000 O   0  0  0  0  0  0  0  0  0  0  0  0
    2.9159    0.3563    0.0000 N   0  0  0  0  0  0  0  0  0  0  0  0
  1  2  2  0        0
  2  3  1  0        0
  3  4  2  0        0
  4  5  1  0        0
  5  6  2  0        0
  6  1  1  0        0
  1  7  1  0        0
  7  8  1  0        0
  8  9  1  0        0
  9  2  1  0        0
  8 10  1  0        0
 10 11  2  0        0
 10 12  2  0        0
 10 13  1  0        0
 13 14  2  0        0
 14 15  1  0        0
 15 16  2  0        0
 16 17  1  0        0
 17 18  2  0        0
 18 13  1  0        0
 16 19  1  0        0
 14 20  1  0        0
  4 21  1  0        0
M  END
>  <PDHK IC50 nM>
1177

>  <pIC50>
5.9

>  <paper>
Tso_2017

>  <compound No.>
3

$$$$
C26H29N3O4S
  cdxl180110032016272D

 34 38  0  0  0  0  0  0  0  0999 V2000
   -1.7282    1.5938    0.0000 C   0  0  0  0  0  0  0  0  0  0  0  0
   -1.7282    0.7688    0.0000 C   0  0  0  0  0  0  0  0  0  0  0  0
   -1.0137    0.3563    0.0000 C   0  0  0  0  0  0  0  0  0  0  0  0
   -0.2993    0.7688    0.0000 C   0  0  0  0  0  0  0  0  0  0  0  0
   -0.2993    1.5938    0.0000 C   0  0  0  0  0  0  0  0  0  0  0  0
   -1.0137    2.0063    0.0000 C   0  0  0  0  0  0  0  0  0  0  0  0
   -2.5128    1.8487    0.0000 C   0  0  0  0  0  0  0  0  0  0  0  0
   -2.9977    1.1813    0.0000 N   0  0  0  0  0  0  0  0  0  0  0  0
   -2.5128    0.5138    0.0000 C   0  0  0  0  0  0  0  0  0  0  0  0
   -3.8227    1.1813    0.0000 S   0  0  0  0  0  0  0  0  0  0  0  0
   -4.0363    1.9782    0.0000 O   0  0  0  0  0  0  0  0  0  0  0  0
   -4.6196    1.3948    0.0000 O   0  0  0  0  0  0  0  0  0  0  0  0
   -4.0363    0.3844    0.0000 C   0  0  0  0  0  0  0  0  0  0  0  0
   -4.8332    0.1709    0.0000 C   0  0  0  0  0  0  0  0  0  0  0  0
   -5.0467   -0.6260    0.0000 C   0  0  0  0  0  0  0  0  0  0  0  0
   -4.4633   -1.2094    0.0000 C   0  0  0  0  0  0  0  0  0  0  0  0
   -3.6664   -0.9959    0.0000 C   0  0  0  0  0  0  0  0  0  0  0  0
   -3.4529   -0.1990    0.0000 C   0  0  0  0  0  0  0  0  0  0  0  0
   -4.6768   -2.0063    0.0000 O   0  0  0  0  0  0  0  0  0  0  0  0
   -5.4165    0.7542    0.0000 O   0  0  0  0  0  0  0  0  0  0  0  0
    0.4152    0.3563    0.0000 N   0  0  0  0  0  0  0  0  0  0  0  0
    1.1297    0.7688    0.0000 C   0  0  0  0  0  0  0  0  0  0  0  0
    1.8442    0.3563    0.0000 C   0  0  0  0  0  0  0  0  0  0  0  0
    2.5586    0.7688    0.0000 C   0  0  0  0  0  0  0  0  0  0  0  0
    2.5586    1.5938    0.0000 N   0  0  0  0  0  0  0  0  0  0  0  0
    1.8442    2.0063    0.0000 C   0  0  0  0  0  0  0  0  0  0  0  0
    1.1297    1.5938    0.0000 C   0  0  0  0  0  0  0  0  0  0  0  0
    3.2731    2.0063    0.0000 C   0  0  0  0  0  0  0  0  0  0  0  0
    3.9876    1.5938    0.0000 C   0  0  0  0  0  0  0  0  0  0  0  0
    3.9876    0.7688    0.0000 C   0  0  0  0  0  0  0  0  0  0  0  0
    4.7020    0.3563    0.0000 C   0  0  0  0  0  0  0  0  0  0  0  0
    5.4165    0.7688    0.0000 C   0  0  0  0  0  0  0  0  0  0  0  0
    5.4165    1.5938    0.0000 C   0  0  0  0  0  0  0  0  0  0  0  0
    4.7020    2.0063    0.0000 C   0  0  0  0  0  0  0  0  0  0  0  0
  1  2  2  0        0
  2  3  1  0        0
  3  4  2  0        0
  4  5  1  0        0
  5  6  2  0        0
  6  1  1  0        0
  1  7  1  0        0
  7  8  1  0        0
  8  9  1  0        0
  9  2  1  0        0
  8 10  1  0        0
 10 11  2  0        0
 10 12  2  0        0
 10 13  1  0        0
 13 14  2  0        0
 14 15  1  0        0
 15 16  2  0        0
 16 17  1  0        0
 17 18  2  0        0
 18 13  1  0        0
 16 19  1  0        0
 14 20  1  0        0
  4 21  1  0        0
 21 22  1  0        0
 22 23  1  0        0
 23 24  1  0        0
 24 25  1  0        0
 25 26  1  0        0
 26 27  1  0        0
 27 22  1  0        0
 25 28  1  0        0
 28 29  1  0        0
 29 30  2  0        0
 30 31  1  0        0
 31 32  2  0        0
 32 33  1  0        0
 33 34  2  0        0
 34 29  1  0        0
M  END
>  <PDHK IC50 nM>
416

>  <pIC50>
6.4

>  <paper>
Tso_2017

>  <compound No.>
4

$$$$
C19H23N3O4S
  cdxl180110032016272D

 27 30  0  0  0  0  0  0  0  0999 V2000
   -0.2993    1.5938    0.0000 C   0  0  0  0  0  0  0  0  0  0  0  0
   -0.2993    0.7688    0.0000 C   0  0  0  0  0  0  0  0  0  0  0  0
    0.4152    0.3563    0.0000 C   0  0  0  0  0  0  0  0  0  0  0  0
    1.1297    0.7688    0.0000 C   0  0  0  0  0  0  0  0  0  0  0  0
    1.1297    1.5938    0.0000 C   0  0  0  0  0  0  0  0  0  0  0  0
    0.4152    2.0063    0.0000 C   0  0  0  0  0  0  0  0  0  0  0  0
   -1.0839    1.8487    0.0000 C   0  0  0  0  0  0  0  0  0  0  0  0
   -1.5688    1.1813    0.0000 N   0  0  0  0  0  0  0  0  0  0  0  0
   -1.0839    0.5138    0.0000 C   0  0  0  0  0  0  0  0  0  0  0  0
   -2.3938    1.1813    0.0000 S   0  0  0  0  0  0  0  0  0  0  0  0
   -2.6073    1.9782    0.0000 O   0  0  0  0  0  0  0  0  0  0  0  0
   -3.1907    1.3948    0.0000 O   0  0  0  0  0  0  0  0  0  0  0  0
   -2.6073    0.3844    0.0000 C   0  0  0  0  0  0  0  0  0  0  0  0
   -3.4042    0.1709    0.0000 C   0  0  0  0  0  0  0  0  0  0  0  0
   -3.6177   -0.6260    0.0000 C   0  0  0  0  0  0  0  0  0  0  0  0
   -3.0344   -1.2094    0.0000 C   0  0  0  0  0  0  0  0  0  0  0  0
   -2.2375   -0.9959    0.0000 C   0  0  0  0  0  0  0  0  0  0  0  0
   -2.0240   -0.1990    0.0000 C   0  0  0  0  0  0  0  0  0  0  0  0
   -3.2479   -2.0063    0.0000 O   0  0  0  0  0  0  0  0  0  0  0  0
   -3.9876    0.7542    0.0000 O   0  0  0  0  0  0  0  0  0  0  0  0
    1.8442    0.3563    0.0000 N   0  0  0  0  0  0  0  0  0  0  0  0
    2.5586    0.7688    0.0000 C   0  0  0  0  0  0  0  0  0  0  0  0
    3.2731    0.3563    0.0000 C   0  0  0  0  0  0  0  0  0  0  0  0
    3.9876    0.7688    0.0000 C   0  0  0  0  0  0  0  0  0  0  0  0
    3.9876    1.5938    0.0000 N   0  0  0  0  0  0  0  0  0  0  0  0
    3.2731    2.0063    0.0000 C   0  0  0  0  0  0  0  0  0  0  0  0
    2.5586    1.5938    0.0000 C   0  0  0  0  0  0  0  0  0  0  0  0
  1  2  2  0        0
  2  3  1  0        0
  3  4  2  0        0
  4  5  1  0        0
  5  6  2  0        0
  6  1  1  0        0
  1  7  1  0        0
  7  8  1  0        0
  8  9  1  0        0
  9  2  1  0        0
  8 10  1  0        0
 10 11  2  0        0
 10 12  2  0        0
 10 13  1  0        0
 13 14  2  0        0
 14 15  1  0        0
 15 16  2  0        0
 16 17  1  0        0
 17 18  2  0        0
 18 13  1  0        0
 16 19  1  0        0
 14 20  1  0        0
  4 21  1  0        0
 21 22  1  0        0
 22 23  1  0        0
 23 24  1  0        0
 24 25  1  0        0
 25 26  1  0        0
 26 27  1  0        0
 27 22  1  0        0
M  END
>  <PDHK IC50 nM>
195

>  <pIC50>
6.7

>  <paper>
Tso_2017

>  <compound No.>
5

$$$$
C20H24N2O4S
  cdxl180110032016272D

 27 30  0  0  0  0  0  0  0  0999 V2000
   -0.2993    1.5938    0.0000 C   0  0  0  0  0  0  0  0  0  0  0  0
   -0.2993    0.7688    0.0000 C   0  0  0  0  0  0  0  0  0  0  0  0
    0.4152    0.3563    0.0000 C   0  0  0  0  0  0  0  0  0  0  0  0
    1.1297    0.7688    0.0000 C   0  0  0  0  0  0  0  0  0  0  0  0
    1.1297    1.5938    0.0000 C   0  0  0  0  0  0  0  0  0  0  0  0
    0.4152    2.0063    0.0000 C   0  0  0  0  0  0  0  0  0  0  0  0
   -1.0839    1.8487    0.0000 C   0  0  0  0  0  0  0  0  0  0  0  0
   -1.5688    1.1813    0.0000 N   0  0  0  0  0  0  0  0  0  0  0  0
   -1.0839    0.5138    0.0000 C   0  0  0  0  0  0  0  0  0  0  0  0
   -2.3938    1.1813    0.0000 S   0  0  0  0  0  0  0  0  0  0  0  0
   -2.6073    1.9782    0.0000 O   0  0  0  0  0  0  0  0  0  0  0  0
   -3.1907    1.3948    0.0000 O   0  0  0  0  0  0  0  0  0  0  0  0
   -2.6073    0.3844    0.0000 C   0  0  0  0  0  0  0  0  0  0  0  0
   -3.4042    0.1709    0.0000 C   0  0  0  0  0  0  0  0  0  0  0  0
   -3.6177   -0.6260    0.0000 C   0  0  0  0  0  0  0  0  0  0  0  0
   -3.0344   -1.2094    0.0000 C   0  0  0  0  0  0  0  0  0  0  0  0
   -2.2375   -0.9959    0.0000 C   0  0  0  0  0  0  0  0  0  0  0  0
   -2.0240   -0.1990    0.0000 C   0  0  0  0  0  0  0  0  0  0  0  0
   -3.2479   -2.0063    0.0000 O   0  0  0  0  0  0  0  0  0  0  0  0
   -3.9876    0.7542    0.0000 O   0  0  0  0  0  0  0  0  0  0  0  0
    1.8442    0.3563    0.0000 N   0  0  0  0  0  0  0  0  0  0  0  0
    2.5586    0.7688    0.0000 C   0  0  0  0  0  0  0  0  0  0  0  0
    3.2731    0.3563    0.0000 C   0  0  0  0  0  0  0  0  0  0  0  0
    3.9876    0.7688    0.0000 C   0  0  0  0  0  0  0  0  0  0  0  0
    3.9876    1.5938    0.0000 C   0  0  0  0  0  0  0  0  0  0  0  0
    3.2731    2.0063    0.0000 C   0  0  0  0  0  0  0  0  0  0  0  0
    2.5586    1.5938    0.0000 C   0  0  0  0  0  0  0  0  0  0  0  0
  1  2  2  0        0
  2  3  1  0        0
  3  4  2  0        0
  4  5  1  0        0
  5  6  2  0        0
  6  1  1  0        0
  1  7  1  0        0
  7  8  1  0        0
  8  9  1  0        0
  9  2  1  0        0
  8 10  1  0        0
 10 11  2  0        0
 10 12  2  0        0
 10 13  1  0        0
 13 14  2  0        0
 14 15  1  0        0
 15 16  2  0        0
 16 17  1  0        0
 17 18  2  0        0
 18 13  1  0        0
 16 19  1  0        0
 14 20  1  0        0
  4 21  1  0        0
 21 22  1  0        0
 22 23  1  0        0
 23 24  1  0        0
 24 25  1  0        0
 25 26  1  0        0
 26 27  1  0        0
 27 22  1  0        0
M  END
>  <PDHK IC50 nM>
1196

>  <pIC50>
5.9

>  <paper>
Tso_2017

>  <compound No.>
6

$$$$
C19H22N2O4S
  cdxl180110032016272D

 26 29  0  0  0  0  0  0  0  0999 V2000
    0.0580    1.5938    0.0000 C   0  0  0  0  0  0  0  0  0  0  0  0
    0.0580    0.7688    0.0000 C   0  0  0  0  0  0  0  0  0  0  0  0
    0.7725    0.3563    0.0000 C   0  0  0  0  0  0  0  0  0  0  0  0
    1.4869    0.7688    0.0000 C   0  0  0  0  0  0  0  0  0  0  0  0
    1.4869    1.5938    0.0000 C   0  0  0  0  0  0  0  0  0  0  0  0
    0.7725    2.0063    0.0000 C   0  0  0  0  0  0  0  0  0  0  0  0
   -0.7266    1.8487    0.0000 C   0  0  0  0  0  0  0  0  0  0  0  0
   -1.2116    1.1813    0.0000 N   0  0  0  0  0  0  0  0  0  0  0  0
   -0.7266    0.5138    0.0000 C   0  0  0  0  0  0  0  0  0  0  0  0
   -2.0366    1.1813    0.0000 S   0  0  0  0  0  0  0  0  0  0  0  0
   -2.2501    1.9782    0.0000 O   0  0  0  0  0  0  0  0  0  0  0  0
   -2.8335    1.3948    0.0000 O   0  0  0  0  0  0  0  0  0  0  0  0
   -2.2501    0.3844    0.0000 C   0  0  0  0  0  0  0  0  0  0  0  0
   -3.0470    0.1709    0.0000 C   0  0  0  0  0  0  0  0  0  0  0  0
   -3.2605   -0.6260    0.0000 C   0  0  0  0  0  0  0  0  0  0  0  0
   -2.6771   -1.2094    0.0000 C   0  0  0  0  0  0  0  0  0  0  0  0
   -1.8802   -0.9959    0.0000 C   0  0  0  0  0  0  0  0  0  0  0  0
   -1.6667   -0.1990    0.0000 C   0  0  0  0  0  0  0  0  0  0  0  0
   -2.8907   -2.0063    0.0000 O   0  0  0  0  0  0  0  0  0  0  0  0
   -3.6303    0.7542    0.0000 O   0  0  0  0  0  0  0  0  0  0  0  0
    2.2014    0.3563    0.0000 N   0  0  0  0  0  0  0  0  0  0  0  0
    2.2014   -0.4687    0.0000 C   0  0  0  0  0  0  0  0  0  0  0  0
    2.9159   -0.8812    0.0000 C   0  0  0  0  0  0  0  0  0  0  0  0
    3.6303   -0.4687    0.0000 C   0  0  0  0  0  0  0  0  0  0  0  0
    3.6303    0.3563    0.0000 C   0  0  0  0  0  0  0  0  0  0  0  0
    2.9159    0.7688    0.0000 C   0  0  0  0  0  0  0  0  0  0  0  0
  1  2  2  0        0
  2  3  1  0        0
  3  4  2  0        0
  4  5  1  0        0
  5  6  2  0        0
  6  1  1  0        0
  1  7  1  0        0
  7  8  1  0        0
  8  9  1  0        0
  9  2  1  0        0
  8 10  1  0        0
 10 11  2  0        0
 10 12  2  0        0
 10 13  1  0        0
 13 14  2  0        0
 14 15  1  0        0
 15 16  2  0        0
 16 17  1  0        0
 17 18  2  0        0
 18 13  1  0        0
 16 19  1  0        0
 14 20  1  0        0
  4 21  1  0        0
 21 22  1  0        0
 22 23  1  0        0
 23 24  1  0        0
 24 25  1  0        0
 25 26  1  0        0
 26 21  1  0        0
M  END
>  <PDHK IC50 nM>
4371

>  <pIC50>
5.4

>  <paper>
Tso_2017

>  <compound No.>
7

$$$$
C18H21N3O4S
  cdxl180110032016272D

 26 29  0  0  0  0  0  0  0  0999 V2000
    0.0580    1.5938    0.0000 C   0  0  0  0  0  0  0  0  0  0  0  0
    0.0580    0.7688    0.0000 C   0  0  0  0  0  0  0  0  0  0  0  0
    0.7725    0.3563    0.0000 C   0  0  0  0  0  0  0  0  0  0  0  0
    1.4869    0.7688    0.0000 C   0  0  0  0  0  0  0  0  0  0  0  0
    1.4869    1.5938    0.0000 C   0  0  0  0  0  0  0  0  0  0  0  0
    0.7725    2.0063    0.0000 C   0  0  0  0  0  0  0  0  0  0  0  0
   -0.7266    1.8487    0.0000 C   0  0  0  0  0  0  0  0  0  0  0  0
   -1.2116    1.1813    0.0000 N   0  0  0  0  0  0  0  0  0  0  0  0
   -0.7266    0.5138    0.0000 C   0  0  0  0  0  0  0  0  0  0  0  0
   -2.0366    1.1813    0.0000 S   0  0  0  0  0  0  0  0  0  0  0  0
   -2.2501    1.9782    0.0000 O   0  0  0  0  0  0  0  0  0  0  0  0
   -2.8335    1.3948    0.0000 O   0  0  0  0  0  0  0  0  0  0  0  0
   -2.2501    0.3844    0.0000 C   0  0  0  0  0  0  0  0  0  0  0  0
   -3.0470    0.1709    0.0000 C   0  0  0  0  0  0  0  0  0  0  0  0
   -3.2605   -0.6260    0.0000 C   0  0  0  0  0  0  0  0  0  0  0  0
   -2.6771   -1.2094    0.0000 C   0  0  0  0  0  0  0  0  0  0  0  0
   -1.8802   -0.9959    0.0000 C   0  0  0  0  0  0  0  0  0  0  0  0
   -1.6667   -0.1990    0.0000 C   0  0  0  0  0  0  0  0  0  0  0  0
   -2.8907   -2.0063    0.0000 O   0  0  0  0  0  0  0  0  0  0  0  0
   -3.6303    0.7542    0.0000 O   0  0  0  0  0  0  0  0  0  0  0  0
    2.2014    0.3563    0.0000 N   0  0  0  0  0  0  0  0  0  0  0  0
    2.2014   -0.4687    0.0000 C   0  0  0  0  0  0  0  0  0  0  0  0
    2.9159   -0.8812    0.0000 C   0  0  0  0  0  0  0  0  0  0  0  0
    3.6303   -0.4687    0.0000 N   0  0  0  0  0  0  0  0  0  0  0  0
    3.6303    0.3563    0.0000 C   0  0  0  0  0  0  0  0  0  0  0  0
    2.9159    0.7688    0.0000 C   0  0  0  0  0  0  0  0  0  0  0  0
  1  2  2  0        0
  2  3  1  0        0
  3  4  2  0        0
  4  5  1  0        0
  5  6  2  0        0
  6  1  1  0        0
  1  7  1  0        0
  7  8  1  0        0
  8  9  1  0        0
  9  2  1  0        0
  8 10  1  0        0
 10 11  2  0        0
 10 12  2  0        0
 10 13  1  0        0
 13 14  2  0        0
 14 15  1  0        0
 15 16  2  0        0
 16 17  1  0        0
 17 18  2  0        0
 18 13  1  0        0
 16 19  1  0        0
 14 20  1  0        0
  4 21  1  0        0
 21 22  1  0        0
 22 23  1  0        0
 23 24  1  0        0
 24 25  1  0        0
 25 26  1  0        0
 26 21  1  0        0
M  END
>  <PDHK IC50 nM>
1346

>  <pIC50>
5.9

>  <paper>
Tso_2017

>  <compound No.>
8

$$$$
C22H25N3O7S
  cdxl180110032016272D

 33 36  0  0  0  0  0  0  0  0999 V2000
   -1.7270    1.1813    0.0000 C   0  0  0  0  0  0  0  0  0  0  0  0
   -1.7270    0.3563    0.0000 C   0  0  0  0  0  0  0  0  0  0  0  0
   -1.0125   -0.0562    0.0000 C   0  0  0  0  0  0  0  0  0  0  0  0
   -0.2980    0.3563    0.0000 C   0  0  0  0  0  0  0  0  0  0  0  0
   -0.2980    1.1813    0.0000 C   0  0  0  0  0  0  0  0  0  0  0  0
   -1.0125    1.5938    0.0000 C   0  0  0  0  0  0  0  0  0  0  0  0
   -2.5116    1.4362    0.0000 C   0  0  0  0  0  0  0  0  0  0  0  0
   -2.9965    0.7688    0.0000 N   0  0  0  0  0  0  0  0  0  0  0  0
   -2.5116    0.1013    0.0000 C   0  0  0  0  0  0  0  0  0  0  0  0
   -3.8215    0.7688    0.0000 S   0  0  0  0  0  0  0  0  0  0  0  0
   -4.0350    1.5657    0.0000 O   0  0  0  0  0  0  0  0  0  0  0  0
   -4.6184    0.9823    0.0000 O   0  0  0  0  0  0  0  0  0  0  0  0
   -4.0350   -0.0281    0.0000 C   0  0  0  0  0  0  0  0  0  0  0  0
   -4.8319   -0.2416    0.0000 C   0  0  0  0  0  0  0  0  0  0  0  0
   -5.0454   -1.0385    0.0000 C   0  0  0  0  0  0  0  0  0  0  0  0
   -4.4621   -1.6219    0.0000 C   0  0  0  0  0  0  0  0  0  0  0  0
   -3.6652   -1.4084    0.0000 C   0  0  0  0  0  0  0  0  0  0  0  0
   -3.4517   -0.6115    0.0000 C   0  0  0  0  0  0  0  0  0  0  0  0
   -4.6756   -2.4188    0.0000 O   0  0  0  0  0  0  0  0  0  0  0  0
   -5.4153    0.3417    0.0000 O   0  0  0  0  0  0  0  0  0  0  0  0
    0.4165   -0.0562    0.0000 N   0  0  0  0  0  0  0  0  0  0  0  0
    1.1309    0.3563    0.0000 C   0  0  0  0  0  0  0  0  0  0  0  0
    1.8454   -0.0562    0.0000 C   0  0  0  0  0  0  0  0  0  0  0  0
    2.5599    0.3563    0.0000 C   0  0  0  0  0  0  0  0  0  0  0  0
    2.5599    1.1813    0.0000 N   0  0  0  0  0  0  0  0  0  0  0  0
    1.8454    1.5938    0.0000 C   0  0  0  0  0  0  0  0  0  0  0  0
    1.1309    1.1813    0.0000 C   0  0  0  0  0  0  0  0  0  0  0  0
    3.2743    1.5938    0.0000 C   0  0  0  0  0  0  0  0  0  0  0  0
    3.9888    1.1813    0.0000 C   0  0  0  0  0  0  0  0  0  0  0  0
    3.2743    2.4188    0.0000 O   0  0  0  0  0  0  0  0  0  0  0  0
    4.7033    1.5938    0.0000 C   0  0  0  0  0  0  0  0  0  0  0  0
    4.7033    2.4159    0.0000 O   0  0  0  0  0  0  0  0  0  0  0  0
    5.4153    1.1827    0.0000 O   0  0  0  0  0  0  0  0  0  0  0  0
 31 32  2  0        0
 31 33  1  0        0
 31 29  1  0        0
  1  2  2  0        0
  2  3  1  0        0
  3  4  2  0        0
  4  5  1  0        0
  5  6  2  0        0
  6  1  1  0        0
  1  7  1  0        0
  7  8  1  0        0
  8  9  1  0        0
  9  2  1  0        0
  8 10  1  0        0
 10 11  2  0        0
 10 12  2  0        0
 10 13  1  0        0
 13 14  2  0        0
 14 15  1  0        0
 15 16  2  0        0
 16 17  1  0        0
 17 18  2  0        0
 18 13  1  0        0
 16 19  1  0        0
 14 20  1  0        0
  4 21  1  0        0
 21 22  1  0        0
 22 23  1  0        0
 23 24  1  0        0
 24 25  1  0        0
 25 26  1  0        0
 26 27  1  0        0
 27 22  1  0        0
 25 28  1  0        0
 28 29  1  0        0
 28 30  2  0        0
M  STY  1   1 SUP
M  SLB  1   1   1
M  SAL   1  3  31  32  33
M  SBL   1  1   3
M  SMT   1 CO2H
M  SBV   1   3   -0.7145   -0.4125
M  END
>  <PDHK IC50 nM>
1657

>  <pIC50>
5.8

>  <paper>
Tso_2017

>  <compound No.>
10

$$$$
C25H31N3O7S
  cdxl180110032016272D

 36 39  0  0  0  0  0  0  0  0999 V2000
   -2.7987    1.1813    0.0000 C   0  0  0  0  0  0  0  0  0  0  0  0
   -2.7987    0.3563    0.0000 C   0  0  0  0  0  0  0  0  0  0  0  0
   -2.0842   -0.0562    0.0000 C   0  0  0  0  0  0  0  0  0  0  0  0
   -1.3697    0.3563    0.0000 C   0  0  0  0  0  0  0  0  0  0  0  0
   -1.3697    1.1813    0.0000 C   0  0  0  0  0  0  0  0  0  0  0  0
   -2.0842    1.5938    0.0000 C   0  0  0  0  0  0  0  0  0  0  0  0
   -3.5833    1.4362    0.0000 C   0  0  0  0  0  0  0  0  0  0  0  0
   -4.0682    0.7688    0.0000 N   0  0  0  0  0  0  0  0  0  0  0  0
   -3.5833    0.1013    0.0000 C   0  0  0  0  0  0  0  0  0  0  0  0
   -4.8932    0.7688    0.0000 S   0  0  0  0  0  0  0  0  0  0  0  0
   -5.1067    1.5657    0.0000 O   0  0  0  0  0  0  0  0  0  0  0  0
   -5.6901    0.9823    0.0000 O   0  0  0  0  0  0  0  0  0  0  0  0
   -5.1067   -0.0281    0.0000 C   0  0  0  0  0  0  0  0  0  0  0  0
   -5.9036   -0.2416    0.0000 C   0  0  0  0  0  0  0  0  0  0  0  0
   -6.1171   -1.0385    0.0000 C   0  0  0  0  0  0  0  0  0  0  0  0
   -5.5338   -1.6219    0.0000 C   0  0  0  0  0  0  0  0  0  0  0  0
   -4.7369   -1.4084    0.0000 C   0  0  0  0  0  0  0  0  0  0  0  0
   -4.5234   -0.6115    0.0000 C   0  0  0  0  0  0  0  0  0  0  0  0
   -5.7473   -2.4188    0.0000 O   0  0  0  0  0  0  0  0  0  0  0  0
   -6.4870    0.3417    0.0000 O   0  0  0  0  0  0  0  0  0  0  0  0
   -0.6552   -0.0562    0.0000 N   0  0  0  0  0  0  0  0  0  0  0  0
    0.0592    0.3563    0.0000 C   0  0  0  0  0  0  0  0  0  0  0  0
    0.7737   -0.0562    0.0000 C   0  0  0  0  0  0  0  0  0  0  0  0
    1.4882    0.3563    0.0000 C   0  0  0  0  0  0  0  0  0  0  0  0
    1.4882    1.1813    0.0000 N   0  0  0  0  0  0  0  0  0  0  0  0
    0.7737    1.5938    0.0000 C   0  0  0  0  0  0  0  0  0  0  0  0
    0.0592    1.1813    0.0000 C   0  0  0  0  0  0  0  0  0  0  0  0
    2.2026    1.5938    0.0000 C   0  0  0  0  0  0  0  0  0  0  0  0
    2.9171    1.1813    0.0000 C   0  0  0  0  0  0  0  0  0  0  0  0
    2.2026    2.4188    0.0000 O   0  0  0  0  0  0  0  0  0  0  0  0
    3.6316    1.5938    0.0000 C   0  0  0  0  0  0  0  0  0  0  0  0
    4.3460    1.1813    0.0000 C   0  0  0  0  0  0  0  0  0  0  0  0
    5.0605    1.5938    0.0000 C   0  0  0  0  0  0  0  0  0  0  0  0
    5.7750    1.1813    0.0000 C   0  0  0  0  0  0  0  0  0  0  0  0
    6.4870    1.5923    0.0000 O   0  0  0  0  0  0  0  0  0  0  0  0
    5.7750    0.3591    0.0000 O   0  0  0  0  0  0  0  0  0  0  0  0
 34 35  2  0        0
 34 36  1  0        0
 34 33  1  0        0
  1  2  2  0        0
  2  3  1  0        0
  3  4  2  0        0
  4  5  1  0        0
  5  6  2  0        0
  6  1  1  0        0
  1  7  1  0        0
  7  8  1  0        0
  8  9  1  0        0
  9  2  1  0        0
  8 10  1  0        0
 10 11  2  0        0
 10 12  2  0        0
 10 13  1  0        0
 13 14  2  0        0
 14 15  1  0        0
 15 16  2  0        0
 16 17  1  0        0
 17 18  2  0        0
 18 13  1  0        0
 16 19  1  0        0
 14 20  1  0        0
  4 21  1  0        0
 21 22  1  0        0
 22 23  1  0        0
 23 24  1  0        0
 24 25  1  0        0
 25 26  1  0        0
 26 27  1  0        0
 27 22  1  0        0
 25 28  1  0        0
 28 29  1  0        0
 28 30  2  0        0
 29 31  1  0        0
 31 32  1  0        0
 32 33  1  0        0
M  STY  1   1 SUP
M  SLB  1   1   1
M  SAL   1  3  34  35  36
M  SBL   1  1   3
M  SMT   1 CO2H
M  SBV   1   3   -0.7145    0.4125
M  END
>  <PDHK IC50 nM>
1610

>  <pIC50>
5.8

>  <paper>
Tso_2017

>  <compound No.>
11

$$$$
C28H37N3O7S
  cdxl180110032016272D

 39 42  0  0  0  0  0  0  0  0999 V2000
   -3.8704    1.1813    0.0000 C   0  0  0  0  0  0  0  0  0  0  0  0
   -3.8704    0.3563    0.0000 C   0  0  0  0  0  0  0  0  0  0  0  0
   -3.1559   -0.0562    0.0000 C   0  0  0  0  0  0  0  0  0  0  0  0
   -2.4414    0.3563    0.0000 C   0  0  0  0  0  0  0  0  0  0  0  0
   -2.4414    1.1813    0.0000 C   0  0  0  0  0  0  0  0  0  0  0  0
   -3.1559    1.5938    0.0000 C   0  0  0  0  0  0  0  0  0  0  0  0
   -4.6550    1.4362    0.0000 C   0  0  0  0  0  0  0  0  0  0  0  0
   -5.1399    0.7688    0.0000 N   0  0  0  0  0  0  0  0  0  0  0  0
   -4.6550    0.1013    0.0000 C   0  0  0  0  0  0  0  0  0  0  0  0
   -5.9649    0.7688    0.0000 S   0  0  0  0  0  0  0  0  0  0  0  0
   -6.1784    1.5657    0.0000 O   0  0  0  0  0  0  0  0  0  0  0  0
   -6.7618    0.9823    0.0000 O   0  0  0  0  0  0  0  0  0  0  0  0
   -6.1784   -0.0281    0.0000 C   0  0  0  0  0  0  0  0  0  0  0  0
   -6.9753   -0.2416    0.0000 C   0  0  0  0  0  0  0  0  0  0  0  0
   -7.1889   -1.0385    0.0000 C   0  0  0  0  0  0  0  0  0  0  0  0
   -6.6055   -1.6219    0.0000 C   0  0  0  0  0  0  0  0  0  0  0  0
   -5.8086   -1.4084    0.0000 C   0  0  0  0  0  0  0  0  0  0  0  0
   -5.5951   -0.6115    0.0000 C   0  0  0  0  0  0  0  0  0  0  0  0
   -6.8190   -2.4188    0.0000 O   0  0  0  0  0  0  0  0  0  0  0  0
   -7.5587    0.3417    0.0000 O   0  0  0  0  0  0  0  0  0  0  0  0
   -1.7270   -0.0562    0.0000 N   0  0  0  0  0  0  0  0  0  0  0  0
   -1.0125    0.3563    0.0000 C   0  0  0  0  0  0  0  0  0  0  0  0
   -0.2980   -0.0562    0.0000 C   0  0  0  0  0  0  0  0  0  0  0  0
    0.4165    0.3563    0.0000 C   0  0  0  0  0  0  0  0  0  0  0  0
    0.4165    1.1813    0.0000 N   0  0  0  0  0  0  0  0  0  0  0  0
   -0.2980    1.5938    0.0000 C   0  0  0  0  0  0  0  0  0  0  0  0
   -1.0125    1.1813    0.0000 C   0  0  0  0  0  0  0  0  0  0  0  0
    1.1309    1.5938    0.0000 C   0  0  0  0  0  0  0  0  0  0  0  0
    1.8454    1.1813    0.0000 C   0  0  0  0  0  0  0  0  0  0  0  0
    1.1309    2.4188    0.0000 O   0  0  0  0  0  0  0  0  0  0  0  0
    2.5599    1.5938    0.0000 C   0  0  0  0  0  0  0  0  0  0  0  0
    3.2743    1.1813    0.0000 C   0  0  0  0  0  0  0  0  0  0  0  0
    3.9888    1.5938    0.0000 C   0  0  0  0  0  0  0  0  0  0  0  0
    4.7033    1.1813    0.0000 C   0  0  0  0  0  0  0  0  0  0  0  0
    5.4178    1.5938    0.0000 C   0  0  0  0  0  0  0  0  0  0  0  0
    6.1322    1.1813    0.0000 C   0  0  0  0  0  0  0  0  0  0  0  0
    6.8467    1.5938    0.0000 C   0  0  0  0  0  0  0  0  0  0  0  0
    6.8467    2.4159    0.0000 O   0  0  0  0  0  0  0  0  0  0  0  0
    7.5587    1.1827    0.0000 O   0  0  0  0  0  0  0  0  0  0  0  0
 37 38  2  0        0
 37 39  1  0        0
 37 36  1  0        0
  1  2  2  0        0
  2  3  1  0        0
  3  4  2  0        0
  4  5  1  0        0
  5  6  2  0        0
  6  1  1  0        0
  1  7  1  0        0
  7  8  1  0        0
  8  9  1  0        0
  9  2  1  0        0
  8 10  1  0        0
 10 11  2  0        0
 10 12  2  0        0
 10 13  1  0        0
 13 14  2  0        0
 14 15  1  0        0
 15 16  2  0        0
 16 17  1  0        0
 17 18  2  0        0
 18 13  1  0        0
 16 19  1  0        0
 14 20  1  0        0
  4 21  1  0        0
 21 22  1  0        0
 22 23  1  0        0
 23 24  1  0        0
 24 25  1  0        0
 25 26  1  0        0
 26 27  1  0        0
 27 22  1  0        0
 25 28  1  0        0
 28 29  1  0        0
 28 30  2  0        0
 29 31  1  0        0
 31 32  1  0        0
 32 33  1  0        0
 33 34  1  0        0
 34 35  1  0        0
 35 36  1  0        0
M  STY  1   1 SUP
M  SLB  1   1   1
M  SAL   1  3  37  38  39
M  SBL   1  1   3
M  SMT   1 CO2H
M  SBV   1   3   -0.7145   -0.4125
M  END
>  <PDHK IC50 nM>
629

>  <pIC50>
6.2

>  <paper>
Tso_2017

>  <compound No.>
12

$$$$
C26H33N3O8S
  cdxl180110032016272D

 38 42  0  0  1  0  0  0  0  0999 V2000
   -2.0854    1.1813    0.0000 C   0  0  0  0  0  0  0  0  0  0  0  0
   -2.0854    0.3563    0.0000 C   0  0  0  0  0  0  0  0  0  0  0  0
   -1.3710   -0.0562    0.0000 C   0  0  0  0  0  0  0  0  0  0  0  0
   -0.6565    0.3563    0.0000 C   0  0  0  0  0  0  0  0  0  0  0  0
   -0.6565    1.1813    0.0000 C   0  0  0  0  0  0  0  0  0  0  0  0
   -1.3710    1.5938    0.0000 C   0  0  0  0  0  0  0  0  0  0  0  0
   -2.8701    1.4362    0.0000 C   0  0  0  0  0  0  0  0  0  0  0  0
   -3.3550    0.7688    0.0000 N   0  0  0  0  0  0  0  0  0  0  0  0
   -2.8701    0.1013    0.0000 C   0  0  0  0  0  0  0  0  0  0  0  0
   -4.1800    0.7688    0.0000 S   0  0  0  0  0  0  0  0  0  0  0  0
   -4.3935    1.5657    0.0000 O   0  0  0  0  0  0  0  0  0  0  0  0
   -4.9769    0.9823    0.0000 O   0  0  0  0  0  0  0  0  0  0  0  0
   -4.3935   -0.0281    0.0000 C   0  0  0  0  0  0  0  0  0  0  0  0
   -5.1904   -0.2416    0.0000 C   0  0  0  0  0  0  0  0  0  0  0  0
   -5.4039   -1.0385    0.0000 C   0  0  0  0  0  0  0  0  0  0  0  0
   -4.8206   -1.6219    0.0000 C   0  0  0  0  0  0  0  0  0  0  0  0
   -4.0237   -1.4084    0.0000 C   0  0  0  0  0  0  0  0  0  0  0  0
   -3.8101   -0.6115    0.0000 C   0  0  0  0  0  0  0  0  0  0  0  0
   -5.0341   -2.4188    0.0000 O   0  0  0  0  0  0  0  0  0  0  0  0
   -5.7738    0.3417    0.0000 O   0  0  0  0  0  0  0  0  0  0  0  0
    0.0580   -0.0562    0.0000 N   0  0  0  0  0  0  0  0  0  0  0  0
    0.7725    0.3563    0.0000 C   0  0  0  0  0  0  0  0  0  0  0  0
    1.4869   -0.0562    0.0000 C   0  0  0  0  0  0  0  0  0  0  0  0
    2.2014    0.3563    0.0000 C   0  0  0  0  0  0  0  0  0  0  0  0
    2.2014    1.1813    0.0000 N   0  0  0  0  0  0  0  0  0  0  0  0
    1.4869    1.5938    0.0000 C   0  0  0  0  0  0  0  0  0  0  0  0
    0.7725    1.1813    0.0000 C   0  0  0  0  0  0  0  0  0  0  0  0
    2.9159    1.5938    0.0000 C   0  0  0  0  0  0  0  0  0  0  0  0
    3.6303    1.1813    0.0000 C   0  0  0  0  0  0  0  0  0  0  0  0
    2.9159    2.4188    0.0000 O   0  0  0  0  0  0  0  0  0  0  0  0
    3.6303    0.3563    0.0000 C   0  0  0  0  0  0  0  0  0  0  0  0
    4.3448   -0.0562    0.0000 C   0  0  0  0  0  0  0  0  0  0  0  0
    5.0593    0.3563    0.0000 C   0  0  0  0  0  0  0  0  0  0  0  0
    5.0593    1.1813    0.0000 C   0  0  0  0  0  0  0  0  0  0  0  0
    4.3448    1.5938    0.0000 C   0  0  0  0  0  0  0  0  0  0  0  0
    5.7738    1.5938    0.0000 O   0  0  0  0  0  0  0  0  0  0  0  0
    5.7738   -0.0562    0.0000 O   0  0  0  0  0  0  0  0  0  0  0  0
    4.3448   -0.8812    0.0000 O   0  0  0  0  0  0  0  0  0  0  0  0
  1  2  2  0        0
  2  3  1  0        0
  3  4  2  0        0
  4  5  1  0        0
  5  6  2  0        0
  6  1  1  0        0
  1  7  1  0        0
  7  8  1  0        0
  8  9  1  0        0
  9  2  1  0        0
  8 10  1  0        0
 10 11  2  0        0
 10 12  2  0        0
 10 13  1  0        0
 13 14  2  0        0
 14 15  1  0        0
 15 16  2  0        0
 16 17  1  0        0
 17 18  2  0        0
 18 13  1  0        0
 16 19  1  0        0
 14 20  1  0        0
  4 21  1  0        0
 21 22  1  0        0
 22 23  1  0        0
 23 24  1  0        0
 24 25  1  0        0
 25 26  1  0        0
 26 27  1  0        0
 27 22  1  0        0
 25 28  1  0        0
 28 29  1  0        0
 28 30  2  0        0
 29 31  1  0        0
 31 32  1  0        0
 32 33  1  0        0
 33 34  1  0        0
 34 35  1  0        0
 35 29  1  0        0
 34 36  1  1        0
 33 37  1  1        0
 32 38  1  6        0
M  END
>  <PDHK IC50 nM>
432

>  <pIC50>
6.4

>  <paper>
Tso_2017

>  <compound No.>
13

$$$$
C23H30N4O6S
  cdxl180110032016272D

 34 37  0  0  1  0  0  0  0  0999 V2000
   -1.7282    1.1813    0.0000 C   0  0  0  0  0  0  0  0  0  0  0  0
   -1.7282    0.3563    0.0000 C   0  0  0  0  0  0  0  0  0  0  0  0
   -1.0137   -0.0562    0.0000 C   0  0  0  0  0  0  0  0  0  0  0  0
   -0.2993    0.3563    0.0000 C   0  0  0  0  0  0  0  0  0  0  0  0
   -0.2993    1.1813    0.0000 C   0  0  0  0  0  0  0  0  0  0  0  0
   -1.0137    1.5938    0.0000 C   0  0  0  0  0  0  0  0  0  0  0  0
   -2.5128    1.4362    0.0000 C   0  0  0  0  0  0  0  0  0  0  0  0
   -2.9977    0.7688    0.0000 N   0  0  0  0  0  0  0  0  0  0  0  0
   -2.5128    0.1013    0.0000 C   0  0  0  0  0  0  0  0  0  0  0  0
   -3.8227    0.7688    0.0000 S   0  0  0  0  0  0  0  0  0  0  0  0
   -4.0363    1.5657    0.0000 O   0  0  0  0  0  0  0  0  0  0  0  0
   -4.6196    0.9823    0.0000 O   0  0  0  0  0  0  0  0  0  0  0  0
   -4.0363   -0.0281    0.0000 C   0  0  0  0  0  0  0  0  0  0  0  0
   -4.8332   -0.2416    0.0000 C   0  0  0  0  0  0  0  0  0  0  0  0
   -5.0467   -1.0385    0.0000 C   0  0  0  0  0  0  0  0  0  0  0  0
   -4.4633   -1.6219    0.0000 C   0  0  0  0  0  0  0  0  0  0  0  0
   -3.6664   -1.4084    0.0000 C   0  0  0  0  0  0  0  0  0  0  0  0
   -3.4529   -0.6115    0.0000 C   0  0  0  0  0  0  0  0  0  0  0  0
   -4.6768   -2.4188    0.0000 O   0  0  0  0  0  0  0  0  0  0  0  0
   -5.4165    0.3417    0.0000 O   0  0  0  0  0  0  0  0  0  0  0  0
    0.4152   -0.0562    0.0000 N   0  0  0  0  0  0  0  0  0  0  0  0
    1.1297    0.3563    0.0000 C   0  0  0  0  0  0  0  0  0  0  0  0
    1.8442   -0.0562    0.0000 C   0  0  0  0  0  0  0  0  0  0  0  0
    2.5586    0.3563    0.0000 C   0  0  0  0  0  0  0  0  0  0  0  0
    2.5586    1.1813    0.0000 N   0  0  0  0  0  0  0  0  0  0  0  0
    1.8442    1.5938    0.0000 C   0  0  0  0  0  0  0  0  0  0  0  0
    1.1297    1.1813    0.0000 C   0  0  0  0  0  0  0  0  0  0  0  0
    3.2731    1.5938    0.0000 C   0  0  0  0  0  0  0  0  0  0  0  0
    3.9876    1.1813    0.0000 C   0  0  0  0  0  0  0  0  0  0  0  0
    3.2731    2.4188    0.0000 O   0  0  0  0  0  0  0  0  0  0  0  0
    3.9876    0.3563    0.0000 N   0  0  0  0  0  0  0  0  0  0  0  0
    4.7020    1.5938    0.0000 C   0  0  0  0  0  0  0  0  0  0  0  0
    4.7020    2.4188    0.0000 C   0  0  0  0  0  0  0  0  0  0  0  0
    5.4165    1.1813    0.0000 O   0  0  0  0  0  0  0  0  0  0  0  0
  1  2  2  0        0
  2  3  1  0        0
  3  4  2  0        0
  4  5  1  0        0
  5  6  2  0        0
  6  1  1  0        0
  1  7  1  0        0
  7  8  1  0        0
  8  9  1  0        0
  9  2  1  0        0
  8 10  1  0        0
 10 11  2  0        0
 10 12  2  0        0
 10 13  1  0        0
 13 14  2  0        0
 14 15  1  0        0
 15 16  2  0        0
 16 17  1  0        0
 17 18  2  0        0
 18 13  1  0        0
 16 19  1  0        0
 14 20  1  0        0
  4 21  1  0        0
 21 22  1  0        0
 22 23  1  0        0
 23 24  1  0        0
 24 25  1  0        0
 25 26  1  0        0
 26 27  1  0        0
 27 22  1  0        0
 25 28  1  0        0
 28 29  1  0        0
 28 30  2  0        0
 29 31  1  6        0
 32 29  1  0        0
 32 33  1  0        0
 32 34  1  6        0
M  END
>  <PDHK IC50 nM>
91

>  <pIC50>
7.0

>  <paper>
Tso_2017

>  <compound No.>
14

$$$$
C22H28N4O6S
  cdxl180110032016272D

 33 36  0  0  1  0  0  0  0  0999 V2000
   -1.7282    1.1813    0.0000 C   0  0  0  0  0  0  0  0  0  0  0  0
   -1.7282    0.3563    0.0000 C   0  0  0  0  0  0  0  0  0  0  0  0
   -1.0137   -0.0562    0.0000 C   0  0  0  0  0  0  0  0  0  0  0  0
   -0.2993    0.3563    0.0000 C   0  0  0  0  0  0  0  0  0  0  0  0
   -0.2993    1.1813    0.0000 C   0  0  0  0  0  0  0  0  0  0  0  0
   -1.0137    1.5938    0.0000 C   0  0  0  0  0  0  0  0  0  0  0  0
   -2.5128    1.4362    0.0000 C   0  0  0  0  0  0  0  0  0  0  0  0
   -2.9977    0.7688    0.0000 N   0  0  0  0  0  0  0  0  0  0  0  0
   -2.5128    0.1013    0.0000 C   0  0  0  0  0  0  0  0  0  0  0  0
   -3.8227    0.7688    0.0000 S   0  0  0  0  0  0  0  0  0  0  0  0
   -4.0363    1.5657    0.0000 O   0  0  0  0  0  0  0  0  0  0  0  0
   -4.6196    0.9823    0.0000 O   0  0  0  0  0  0  0  0  0  0  0  0
   -4.0363   -0.0281    0.0000 C   0  0  0  0  0  0  0  0  0  0  0  0
   -4.8332   -0.2416    0.0000 C   0  0  0  0  0  0  0  0  0  0  0  0
   -5.0467   -1.0385    0.0000 C   0  0  0  0  0  0  0  0  0  0  0  0
   -4.4633   -1.6219    0.0000 C   0  0  0  0  0  0  0  0  0  0  0  0
   -3.6664   -1.4084    0.0000 C   0  0  0  0  0  0  0  0  0  0  0  0
   -3.4529   -0.6115    0.0000 C   0  0  0  0  0  0  0  0  0  0  0  0
   -4.6768   -2.4188    0.0000 O   0  0  0  0  0  0  0  0  0  0  0  0
   -5.4165    0.3417    0.0000 O   0  0  0  0  0  0  0  0  0  0  0  0
    0.4152   -0.0562    0.0000 N   0  0  0  0  0  0  0  0  0  0  0  0
    1.1297    0.3563    0.0000 C   0  0  0  0  0  0  0  0  0  0  0  0
    1.8442   -0.0562    0.0000 C   0  0  0  0  0  0  0  0  0  0  0  0
    2.5586    0.3563    0.0000 C   0  0  0  0  0  0  0  0  0  0  0  0
    2.5586    1.1813    0.0000 N   0  0  0  0  0  0  0  0  0  0  0  0
    1.8442    1.5938    0.0000 C   0  0  0  0  0  0  0  0  0  0  0  0
    1.1297    1.1813    0.0000 C   0  0  0  0  0  0  0  0  0  0  0  0
    3.2731    1.5938    0.0000 C   0  0  0  0  0  0  0  0  0  0  0  0
    3.9876    1.1813    0.0000 C   0  0  0  0  0  0  0  0  0  0  0  0
    3.2731    2.4188    0.0000 O   0  0  0  0  0  0  0  0  0  0  0  0
    3.9876    0.3563    0.0000 N   0  0  0  0  0  0  0  0  0  0  0  0
    4.7020    1.5938    0.0000 C   0  0  0  0  0  0  0  0  0  0  0  0
    5.4165    1.1813    0.0000 O   0  0  0  0  0  0  0  0  0  0  0  0
  1  2  2  0        0
  2  3  1  0        0
  3  4  2  0        0
  4  5  1  0        0
  5  6  2  0        0
  6  1  1  0        0
  1  7  1  0        0
  7  8  1  0        0
  8  9  1  0        0
  9  2  1  0        0
  8 10  1  0        0
 10 11  2  0        0
 10 12  2  0        0
 10 13  1  0        0
 13 14  2  0        0
 14 15  1  0        0
 15 16  2  0        0
 16 17  1  0        0
 17 18  2  0        0
 18 13  1  0        0
 16 19  1  0        0
 14 20  1  0        0
  4 21  1  0        0
 21 22  1  0        0
 22 23  1  0        0
 23 24  1  0        0
 24 25  1  0        0
 25 26  1  0        0
 26 27  1  0        0
 27 22  1  0        0
 25 28  1  0        0
 28 29  1  0        0
 28 30  2  0        0
 29 31  1  6        0
 32 29  1  0        0
 32 33  1  0        0
M  END
>  <PDHK IC50 nM>
68

>  <pIC50>
7.2

>  <paper>
Tso_2017

>  <compound No.>
15

$$$$
C24H31N5O6S
  cdxl180110032016272D

 36 39  0  0  1  0  0  0  0  0999 V2000
   -2.4414    1.1813    0.0000 C   0  0  0  0  0  0  0  0  0  0  0  0
   -2.4414    0.3563    0.0000 C   0  0  0  0  0  0  0  0  0  0  0  0
   -1.7270   -0.0562    0.0000 C   0  0  0  0  0  0  0  0  0  0  0  0
   -1.0125    0.3563    0.0000 C   0  0  0  0  0  0  0  0  0  0  0  0
   -1.0125    1.1813    0.0000 C   0  0  0  0  0  0  0  0  0  0  0  0
   -1.7270    1.5938    0.0000 C   0  0  0  0  0  0  0  0  0  0  0  0
   -3.2260    1.4362    0.0000 C   0  0  0  0  0  0  0  0  0  0  0  0
   -3.7110    0.7688    0.0000 N   0  0  0  0  0  0  0  0  0  0  0  0
   -3.2260    0.1013    0.0000 C   0  0  0  0  0  0  0  0  0  0  0  0
   -4.5360    0.7688    0.0000 S   0  0  0  0  0  0  0  0  0  0  0  0
   -4.7495    1.5657    0.0000 O   0  0  0  0  0  0  0  0  0  0  0  0
   -5.3329    0.9823    0.0000 O   0  0  0  0  0  0  0  0  0  0  0  0
   -4.7495   -0.0281    0.0000 C   0  0  0  0  0  0  0  0  0  0  0  0
   -5.5464   -0.2416    0.0000 C   0  0  0  0  0  0  0  0  0  0  0  0
   -5.7599   -1.0385    0.0000 C   0  0  0  0  0  0  0  0  0  0  0  0
   -5.1765   -1.6219    0.0000 C   0  0  0  0  0  0  0  0  0  0  0  0
   -4.3797   -1.4084    0.0000 C   0  0  0  0  0  0  0  0  0  0  0  0
   -4.1661   -0.6115    0.0000 C   0  0  0  0  0  0  0  0  0  0  0  0
   -5.3901   -2.4188    0.0000 O   0  0  0  0  0  0  0  0  0  0  0  0
   -6.1297    0.3417    0.0000 O   0  0  0  0  0  0  0  0  0  0  0  0
   -0.2980   -0.0562    0.0000 N   0  0  0  0  0  0  0  0  0  0  0  0
    0.4165    0.3563    0.0000 C   0  0  0  0  0  0  0  0  0  0  0  0
    1.1309   -0.0562    0.0000 C   0  0  0  0  0  0  0  0  0  0  0  0
    1.8454    0.3563    0.0000 C   0  0  0  0  0  0  0  0  0  0  0  0
    1.8454    1.1813    0.0000 N   0  0  0  0  0  0  0  0  0  0  0  0
    1.1309    1.5938    0.0000 C   0  0  0  0  0  0  0  0  0  0  0  0
    0.4165    1.1813    0.0000 C   0  0  0  0  0  0  0  0  0  0  0  0
    2.5599    1.5938    0.0000 C   0  0  0  0  0  0  0  0  0  0  0  0
    3.2743    1.1813    0.0000 C   0  0  0  0  0  0  0  0  0  0  0  0
    2.5599    2.4188    0.0000 O   0  0  0  0  0  0  0  0  0  0  0  0
    3.2743    0.3563    0.0000 N   0  0  0  0  0  0  0  0  0  0  0  0
    3.9888    1.5938    0.0000 C   0  0  0  0  0  0  0  0  0  0  0  0
    4.7033    1.1813    0.0000 C   0  0  0  0  0  0  0  0  0  0  0  0
    5.4178    1.5938    0.0000 C   0  0  0  0  0  0  0  0  0  0  0  0
    5.4178    2.4159    0.0000 O   0  0  0  0  0  0  0  0  0  0  0  0
    6.1297    1.1827    0.0000 N   0  0  0  0  0  0  0  0  0  0  0  0
 34 35  2  0        0
 34 36  1  0        0
 34 33  1  0        0
  1  2  2  0        0
  2  3  1  0        0
  3  4  2  0        0
  4  5  1  0        0
  5  6  2  0        0
  6  1  1  0        0
  1  7  1  0        0
  7  8  1  0        0
  8  9  1  0        0
  9  2  1  0        0
  8 10  1  0        0
 10 11  2  0        0
 10 12  2  0        0
 10 13  1  0        0
 13 14  2  0        0
 14 15  1  0        0
 15 16  2  0        0
 16 17  1  0        0
 17 18  2  0        0
 18 13  1  0        0
 16 19  1  0        0
 14 20  1  0        0
  4 21  1  0        0
 21 22  1  0        0
 22 23  1  0        0
 23 24  1  0        0
 24 25  1  0        0
 25 26  1  0        0
 26 27  1  0        0
 27 22  1  0        0
 25 28  1  0        0
 28 29  1  0        0
 28 30  2  0        0
 29 31  1  6        0
 32 29  1  0        0
 32 33  1  0        0
M  STY  1   1 SUP
M  SLB  1   1   1
M  SAL   1  3  34  35  36
M  SBL   1  1   3
M  SMT   1 CONH2
M  SBV   1   3   -0.7145   -0.4125
M  END
>  <PDHK IC50 nM>
72

>  <pIC50>
7.1

>  <paper>
Tso_2017

>  <compound No.>
16

$$$$
C23H29N5O6S
  cdxl180110032016272D

 35 38  0  0  1  0  0  0  0  0999 V2000
   -2.0842    1.1813    0.0000 C   0  0  0  0  0  0  0  0  0  0  0  0
   -2.0842    0.3563    0.0000 C   0  0  0  0  0  0  0  0  0  0  0  0
   -1.3697   -0.0562    0.0000 C   0  0  0  0  0  0  0  0  0  0  0  0
   -0.6552    0.3563    0.0000 C   0  0  0  0  0  0  0  0  0  0  0  0
   -0.6552    1.1813    0.0000 C   0  0  0  0  0  0  0  0  0  0  0  0
   -1.3697    1.5938    0.0000 C   0  0  0  0  0  0  0  0  0  0  0  0
   -2.8688    1.4362    0.0000 C   0  0  0  0  0  0  0  0  0  0  0  0
   -3.3537    0.7688    0.0000 N   0  0  0  0  0  0  0  0  0  0  0  0
   -2.8688    0.1013    0.0000 C   0  0  0  0  0  0  0  0  0  0  0  0
   -4.1787    0.7688    0.0000 S   0  0  0  0  0  0  0  0  0  0  0  0
   -4.3923    1.5657    0.0000 O   0  0  0  0  0  0  0  0  0  0  0  0
   -4.9756    0.9823    0.0000 O   0  0  0  0  0  0  0  0  0  0  0  0
   -4.3923   -0.0281    0.0000 C   0  0  0  0  0  0  0  0  0  0  0  0
   -5.1891   -0.2416    0.0000 C   0  0  0  0  0  0  0  0  0  0  0  0
   -5.4027   -1.0385    0.0000 C   0  0  0  0  0  0  0  0  0  0  0  0
   -4.8193   -1.6219    0.0000 C   0  0  0  0  0  0  0  0  0  0  0  0
   -4.0224   -1.4084    0.0000 C   0  0  0  0  0  0  0  0  0  0  0  0
   -3.8089   -0.6115    0.0000 C   0  0  0  0  0  0  0  0  0  0  0  0
   -5.0328   -2.4188    0.0000 O   0  0  0  0  0  0  0  0  0  0  0  0
   -5.7725    0.3417    0.0000 O   0  0  0  0  0  0  0  0  0  0  0  0
    0.0592   -0.0562    0.0000 N   0  0  0  0  0  0  0  0  0  0  0  0
    0.7737    0.3563    0.0000 C   0  0  0  0  0  0  0  0  0  0  0  0
    1.4882   -0.0562    0.0000 C   0  0  0  0  0  0  0  0  0  0  0  0
    2.2026    0.3563    0.0000 C   0  0  0  0  0  0  0  0  0  0  0  0
    2.2026    1.1813    0.0000 N   0  0  0  0  0  0  0  0  0  0  0  0
    1.4882    1.5938    0.0000 C   0  0  0  0  0  0  0  0  0  0  0  0
    0.7737    1.1813    0.0000 C   0  0  0  0  0  0  0  0  0  0  0  0
    2.9171    1.5938    0.0000 C   0  0  0  0  0  0  0  0  0  0  0  0
    3.6316    1.1813    0.0000 C   0  0  0  0  0  0  0  0  0  0  0  0
    2.9171    2.4188    0.0000 O   0  0  0  0  0  0  0  0  0  0  0  0
    3.6316    0.3563    0.0000 N   0  0  0  0  0  0  0  0  0  0  0  0
    4.3460    1.5938    0.0000 C   0  0  0  0  0  0  0  0  0  0  0  0
    5.0605    1.1813    0.0000 C   0  0  0  0  0  0  0  0  0  0  0  0
    5.7725    1.5923    0.0000 O   0  0  0  0  0  0  0  0  0  0  0  0
    5.0605    0.3591    0.0000 N   0  0  0  0  0  0  0  0  0  0  0  0
 33 34  2  0        0
 33 35  1  0        0
 33 32  1  0        0
  1  2  2  0        0
  2  3  1  0        0
  3  4  2  0        0
  4  5  1  0        0
  5  6  2  0        0
  6  1  1  0        0
  1  7  1  0        0
  7  8  1  0        0
  8  9  1  0        0
  9  2  1  0        0
  8 10  1  0        0
 10 11  2  0        0
 10 12  2  0        0
 10 13  1  0        0
 13 14  2  0        0
 14 15  1  0        0
 15 16  2  0        0
 16 17  1  0        0
 17 18  2  0        0
 18 13  1  0        0
 16 19  1  0        0
 14 20  1  0        0
  4 21  1  0        0
 21 22  1  0        0
 22 23  1  0        0
 23 24  1  0        0
 24 25  1  0        0
 25 26  1  0        0
 26 27  1  0        0
 27 22  1  0        0
 25 28  1  0        0
 28 29  1  0        0
 28 30  2  0        0
 29 31  1  6        0
 32 29  1  0        0
M  STY  1   1 SUP
M  SLB  1   1   1
M  SAL   1  3  33  34  35
M  SBL   1  1   3
M  SMT   1 CONH2
M  SBV   1   3   -0.7145    0.4125
M  END
>  <PDHK IC50 nM>
58

>  <pIC50>
7.2

>  <paper>
Tso_2017

>  <compound No.>
17

$$$$
C25H35N5O5S
  cdxl180110032016272D

 36 39  0  0  1  0  0  0  0  0999 V2000
   -2.7999    1.1813    0.0000 C   0  0  0  0  0  0  0  0  0  0  0  0
   -2.7999    0.3563    0.0000 C   0  0  0  0  0  0  0  0  0  0  0  0
   -2.0854   -0.0562    0.0000 C   0  0  0  0  0  0  0  0  0  0  0  0
   -1.3710    0.3563    0.0000 C   0  0  0  0  0  0  0  0  0  0  0  0
   -1.3710    1.1813    0.0000 C   0  0  0  0  0  0  0  0  0  0  0  0
   -2.0854    1.5938    0.0000 C   0  0  0  0  0  0  0  0  0  0  0  0
   -3.5845    1.4362    0.0000 C   0  0  0  0  0  0  0  0  0  0  0  0
   -4.0694    0.7688    0.0000 N   0  0  0  0  0  0  0  0  0  0  0  0
   -3.5845    0.1013    0.0000 C   0  0  0  0  0  0  0  0  0  0  0  0
   -4.8944    0.7688    0.0000 S   0  0  0  0  0  0  0  0  0  0  0  0
   -5.1080    1.5657    0.0000 O   0  0  0  0  0  0  0  0  0  0  0  0
   -5.6913    0.9823    0.0000 O   0  0  0  0  0  0  0  0  0  0  0  0
   -5.1080   -0.0281    0.0000 C   0  0  0  0  0  0  0  0  0  0  0  0
   -5.9049   -0.2416    0.0000 C   0  0  0  0  0  0  0  0  0  0  0  0
   -6.1184   -1.0385    0.0000 C   0  0  0  0  0  0  0  0  0  0  0  0
   -5.5350   -1.6219    0.0000 C   0  0  0  0  0  0  0  0  0  0  0  0
   -4.7381   -1.4084    0.0000 C   0  0  0  0  0  0  0  0  0  0  0  0
   -4.5246   -0.6115    0.0000 C   0  0  0  0  0  0  0  0  0  0  0  0
   -5.7485   -2.4188    0.0000 O   0  0  0  0  0  0  0  0  0  0  0  0
   -6.4882    0.3417    0.0000 O   0  0  0  0  0  0  0  0  0  0  0  0
   -0.6565   -0.0562    0.0000 N   0  0  0  0  0  0  0  0  0  0  0  0
    0.0580    0.3563    0.0000 C   0  0  0  0  0  0  0  0  0  0  0  0
    0.7725   -0.0562    0.0000 C   0  0  0  0  0  0  0  0  0  0  0  0
    1.4869    0.3563    0.0000 C   0  0  0  0  0  0  0  0  0  0  0  0
    1.4869    1.1813    0.0000 N   0  0  0  0  0  0  0  0  0  0  0  0
    0.7725    1.5938    0.0000 C   0  0  0  0  0  0  0  0  0  0  0  0
    0.0580    1.1813    0.0000 C   0  0  0  0  0  0  0  0  0  0  0  0
    2.2014    1.5938    0.0000 C   0  0  0  0  0  0  0  0  0  0  0  0
    2.9159    1.1813    0.0000 C   0  0  0  0  0  0  0  0  0  0  0  0
    2.2014    2.4188    0.0000 O   0  0  0  0  0  0  0  0  0  0  0  0
    2.9159    0.3563    0.0000 N   0  0  0  0  0  0  0  0  0  0  0  0
    3.6303    1.5938    0.0000 C   0  0  0  0  0  0  0  0  0  0  0  0
    4.3448    1.1813    0.0000 C   0  0  0  0  0  0  0  0  0  0  0  0
    5.0593    1.5938    0.0000 C   0  0  0  0  0  0  0  0  0  0  0  0
    5.7737    1.1813    0.0000 C   0  0  0  0  0  0  0  0  0  0  0  0
    6.4882    1.5938    0.0000 N   0  0  0  0  0  0  0  0  0  0  0  0
  1  2  2  0        0
  2  3  1  0        0
  3  4  2  0        0
  4  5  1  0        0
  5  6  2  0        0
  6  1  1  0        0
  1  7  1  0        0
  7  8  1  0        0
  8  9  1  0        0
  9  2  1  0        0
  8 10  1  0        0
 10 11  2  0        0
 10 12  2  0        0
 10 13  1  0        0
 13 14  2  0        0
 14 15  1  0        0
 15 16  2  0        0
 16 17  1  0        0
 17 18  2  0        0
 18 13  1  0        0
 16 19  1  0        0
 14 20  1  0        0
  4 21  1  0        0
 21 22  1  0        0
 22 23  1  0        0
 23 24  1  0        0
 24 25  1  0        0
 25 26  1  0        0
 26 27  1  0        0
 27 22  1  0        0
 25 28  1  0        0
 28 29  1  0        0
 28 30  2  0        0
 29 31  1  6        0
 32 29  1  0        0
 32 33  1  0        0
 33 34  1  0        0
 34 35  1  0        0
 35 36  1  0        0
M  END
>  <PDHK IC50 nM>
580

>  <pIC50>
6.2

>  <paper>
Tso_2017

>  <compound No.>
18

$$$$
C27H27N3O7S
  cdxl180110032016272D

 38 42  0  0  0  0  0  0  0  0999 V2000
   -1.7282    0.9757    0.0000 C   0  0  0  0  0  0  0  0  0  0  0  0
   -1.7282    0.1507    0.0000 C   0  0  0  0  0  0  0  0  0  0  0  0
   -1.0137   -0.2618    0.0000 C   0  0  0  0  0  0  0  0  0  0  0  0
   -0.2993    0.1507    0.0000 C   0  0  0  0  0  0  0  0  0  0  0  0
   -0.2993    0.9757    0.0000 C   0  0  0  0  0  0  0  0  0  0  0  0
   -1.0137    1.3882    0.0000 C   0  0  0  0  0  0  0  0  0  0  0  0
   -2.5128    1.2307    0.0000 C   0  0  0  0  0  0  0  0  0  0  0  0
   -2.9977    0.5632    0.0000 N   0  0  0  0  0  0  0  0  0  0  0  0
   -2.5128   -0.1042    0.0000 C   0  0  0  0  0  0  0  0  0  0  0  0
   -3.8227    0.5632    0.0000 S   0  0  0  0  0  0  0  0  0  0  0  0
   -4.0363    1.3601    0.0000 O   0  0  0  0  0  0  0  0  0  0  0  0
   -4.6196    0.7768    0.0000 O   0  0  0  0  0  0  0  0  0  0  0  0
   -4.0363   -0.2336    0.0000 C   0  0  0  0  0  0  0  0  0  0  0  0
   -4.8332   -0.4472    0.0000 C   0  0  0  0  0  0  0  0  0  0  0  0
   -5.0467   -1.2441    0.0000 C   0  0  0  0  0  0  0  0  0  0  0  0
   -4.4633   -1.8274    0.0000 C   0  0  0  0  0  0  0  0  0  0  0  0
   -3.6664   -1.6139    0.0000 C   0  0  0  0  0  0  0  0  0  0  0  0
   -3.4529   -0.8170    0.0000 C   0  0  0  0  0  0  0  0  0  0  0  0
   -4.6768   -2.6243    0.0000 O   0  0  0  0  0  0  0  0  0  0  0  0
   -5.4165    0.1362    0.0000 O   0  0  0  0  0  0  0  0  0  0  0  0
    0.4152   -0.2618    0.0000 N   0  0  0  0  0  0  0  0  0  0  0  0
    1.1297    0.1507    0.0000 C   0  0  0  0  0  0  0  0  0  0  0  0
    1.8442   -0.2618    0.0000 C   0  0  0  0  0  0  0  0  0  0  0  0
    2.5586    0.1507    0.0000 C   0  0  0  0  0  0  0  0  0  0  0  0
    2.5586    0.9757    0.0000 N   0  0  0  0  0  0  0  0  0  0  0  0
    1.8442    1.3882    0.0000 C   0  0  0  0  0  0  0  0  0  0  0  0
    1.1297    0.9757    0.0000 C   0  0  0  0  0  0  0  0  0  0  0  0
    3.2731    1.3882    0.0000 C   0  0  0  0  0  0  0  0  0  0  0  0
    3.9876    0.9757    0.0000 C   0  0  0  0  0  0  0  0  0  0  0  0
    3.2731    2.2132    0.0000 O   0  0  0  0  0  0  0  0  0  0  0  0
    3.9876    0.1507    0.0000 C   0  0  0  0  0  0  0  0  0  0  0  0
    4.7020   -0.2618    0.0000 C   0  0  0  0  0  0  0  0  0  0  0  0
    5.4165    0.1507    0.0000 C   0  0  0  0  0  0  0  0  0  0  0  0
    5.4165    0.9757    0.0000 C   0  0  0  0  0  0  0  0  0  0  0  0
    4.7020    1.3882    0.0000 C   0  0  0  0  0  0  0  0  0  0  0  0
    4.7020    2.2132    0.0000 C   0  0  0  0  0  0  0  0  0  0  0  0
    3.9901    2.6243    0.0000 O   0  0  0  0  0  0  0  0  0  0  0  0
    5.4140    2.6243    0.0000 O   0  0  0  0  0  0  0  0  0  0  0  0
 36 37  2  0        0
 36 38  1  0        0
 36 35  1  0        0
  1  2  2  0        0
  2  3  1  0        0
  3  4  2  0        0
  4  5  1  0        0
  5  6  2  0        0
  6  1  1  0        0
  1  7  1  0        0
  7  8  1  0        0
  8  9  1  0        0
  9  2  1  0        0
  8 10  1  0        0
 10 11  2  0        0
 10 12  2  0        0
 10 13  1  0        0
 13 14  2  0        0
 14 15  1  0        0
 15 16  2  0        0
 16 17  1  0        0
 17 18  2  0        0
 18 13  1  0        0
 16 19  1  0        0
 14 20  1  0        0
  4 21  1  0        0
 21 22  1  0        0
 22 23  1  0        0
 23 24  1  0        0
 24 25  1  0        0
 25 26  1  0        0
 26 27  1  0        0
 27 22  1  0        0
 25 28  1  0        0
 28 29  1  0        0
 28 30  2  0        0
 29 31  2  0        0
 31 32  1  0        0
 32 33  2  0        0
 33 34  1  0        0
 34 35  2  0        0
 35 29  1  0        0
M  STY  1   1 SUP
M  SLB  1   1   1
M  SAL   1  3  36  37  38
M  SBL   1  1   3
M  SMT   1 CO2H
M  SBV   1   3    0.0000   -0.8250
M  END
>  <PDHK IC50 nM>
565

>  <pIC50>
6.2

>  <paper>
Tso_2017

>  <compound No.>
19

$$$$
C22H29N3O6S
  cdxl180110032016272D

 32 35  0  0  0  0  0  0  0  0999 V2000
   -1.7282    1.5938    0.0000 C   0  0  0  0  0  0  0  0  0  0  0  0
   -1.7282    0.7688    0.0000 C   0  0  0  0  0  0  0  0  0  0  0  0
   -1.0137    0.3563    0.0000 C   0  0  0  0  0  0  0  0  0  0  0  0
   -0.2993    0.7688    0.0000 C   0  0  0  0  0  0  0  0  0  0  0  0
   -0.2993    1.5938    0.0000 C   0  0  0  0  0  0  0  0  0  0  0  0
   -1.0137    2.0063    0.0000 C   0  0  0  0  0  0  0  0  0  0  0  0
   -2.5128    1.8487    0.0000 C   0  0  0  0  0  0  0  0  0  0  0  0
   -2.9977    1.1813    0.0000 N   0  0  0  0  0  0  0  0  0  0  0  0
   -2.5128    0.5138    0.0000 C   0  0  0  0  0  0  0  0  0  0  0  0
   -3.8227    1.1813    0.0000 S   0  0  0  0  0  0  0  0  0  0  0  0
   -4.0363    1.9782    0.0000 O   0  0  0  0  0  0  0  0  0  0  0  0
   -4.6196    1.3948    0.0000 O   0  0  0  0  0  0  0  0  0  0  0  0
   -4.0363    0.3844    0.0000 C   0  0  0  0  0  0  0  0  0  0  0  0
   -4.8332    0.1709    0.0000 C   0  0  0  0  0  0  0  0  0  0  0  0
   -5.0467   -0.6260    0.0000 C   0  0  0  0  0  0  0  0  0  0  0  0
   -4.4633   -1.2094    0.0000 C   0  0  0  0  0  0  0  0  0  0  0  0
   -3.6664   -0.9959    0.0000 C   0  0  0  0  0  0  0  0  0  0  0  0
   -3.4529   -0.1990    0.0000 C   0  0  0  0  0  0  0  0  0  0  0  0
   -4.6768   -2.0063    0.0000 O   0  0  0  0  0  0  0  0  0  0  0  0
   -5.4165    0.7542    0.0000 O   0  0  0  0  0  0  0  0  0  0  0  0
    0.4152    0.3563    0.0000 N   0  0  0  0  0  0  0  0  0  0  0  0
    1.1297    0.7688    0.0000 C   0  0  0  0  0  0  0  0  0  0  0  0
    1.8442    0.3563    0.0000 C   0  0  0  0  0  0  0  0  0  0  0  0
    2.5586    0.7688    0.0000 C   0  0  0  0  0  0  0  0  0  0  0  0
    2.5586    1.5938    0.0000 N   0  0  0  0  0  0  0  0  0  0  0  0
    1.8442    2.0063    0.0000 C   0  0  0  0  0  0  0  0  0  0  0  0
    1.1297    1.5938    0.0000 C   0  0  0  0  0  0  0  0  0  0  0  0
    3.2731    2.0063    0.0000 C   0  0  0  0  0  0  0  0  0  0  0  0
    3.9876    1.5938    0.0000 C   0  0  0  0  0  0  0  0  0  0  0  0
    3.9876    0.7688    0.0000 O   0  0  0  0  0  0  0  0  0  0  0  0
    4.7020    2.0063    0.0000 C   0  0  0  0  0  0  0  0  0  0  0  0
    5.4165    1.5938    0.0000 O   0  0  0  0  0  0  0  0  0  0  0  0
  1  2  2  0        0
  2  3  1  0        0
  3  4  2  0        0
  4  5  1  0        0
  5  6  2  0        0
  6  1  1  0        0
  1  7  1  0        0
  7  8  1  0        0
  8  9  1  0        0
  9  2  1  0        0
  8 10  1  0        0
 10 11  2  0        0
 10 12  2  0        0
 10 13  1  0        0
 13 14  2  0        0
 14 15  1  0        0
 15 16  2  0        0
 16 17  1  0        0
 17 18  2  0        0
 18 13  1  0        0
 16 19  1  0        0
 14 20  1  0        0
  4 21  1  0        0
 21 22  1  0        0
 22 23  1  0        0
 23 24  1  0        0
 24 25  1  0        0
 25 26  1  0        0
 26 27  1  0        0
 27 22  1  0        0
 25 28  1  0        0
 28 29  1  0        0
 29 30  1  0        0
 31 29  1  0        0
 31 32  1  0        0
M  END
>  <PDHK IC50 nM>
154

>  <pIC50>
6.8

>  <paper>
Tso_2017

>  <compound No.>
20

$$$$
C22H27N5O6S
  cdxl180110032016272D

 34 37  0  0  1  0  0  0  0  0999 V2000
   -1.6271    0.7266    0.0000 C   0  0  0  0  0  0  0  0  0  0  0  0
   -1.6271   -0.0984    0.0000 C   0  0  0  0  0  0  0  0  0  0  0  0
   -0.9126   -0.5109    0.0000 C   0  0  0  0  0  0  0  0  0  0  0  0
   -0.1981   -0.0984    0.0000 C   0  0  0  0  0  0  0  0  0  0  0  0
   -0.1981    0.7266    0.0000 C   0  0  0  0  0  0  0  0  0  0  0  0
   -0.9126    1.1391    0.0000 C   0  0  0  0  0  0  0  0  0  0  0  0
   -2.4117    0.9815    0.0000 C   0  0  0  0  0  0  0  0  0  0  0  0
   -2.8966    0.3141    0.0000 N   0  0  0  0  0  0  0  0  0  0  0  0
   -2.4117   -0.3534    0.0000 C   0  0  0  0  0  0  0  0  0  0  0  0
   -3.7216    0.3141    0.0000 S   0  0  0  0  0  0  0  0  0  0  0  0
   -3.7216    1.1391    0.0000 O   0  0  0  0  0  0  0  0  0  0  0  0
   -4.5466    0.3141    0.0000 O   0  0  0  0  0  0  0  0  0  0  0  0
   -3.7216   -0.5109    0.0000 C   0  0  0  0  0  0  0  0  0  0  0  0
   -4.4361   -0.9234    0.0000 C   0  0  0  0  0  0  0  0  0  0  0  0
   -4.4361   -1.7484    0.0000 C   0  0  0  0  0  0  0  0  0  0  0  0
   -3.7216   -2.1609    0.0000 C   0  0  0  0  0  0  0  0  0  0  0  0
   -3.0072   -1.7484    0.0000 C   0  0  0  0  0  0  0  0  0  0  0  0
   -3.0072   -0.9234    0.0000 C   0  0  0  0  0  0  0  0  0  0  0  0
   -3.7216   -2.9859    0.0000 O   0  0  0  0  0  0  0  0  0  0  0  0
   -5.1506   -0.5109    0.0000 O   0  0  0  0  0  0  0  0  0  0  0  0
    0.5163   -0.5109    0.0000 N   0  0  0  0  0  0  0  0  0  0  0  0
    1.2308   -0.0984    0.0000 C   0  0  0  0  0  0  0  0  0  0  0  0
    2.4596    1.6473    0.0000 C   0  0  0  0  0  0  0  0  0  0  0  0
    3.2801    1.7335    0.0000 C   0  0  0  0  0  0  0  0  0  0  0  0
    1.9746    2.3147    0.0000 O   0  0  0  0  0  0  0  0  0  0  0  0
    3.7650    1.0661    0.0000 N   0  0  0  0  0  0  0  0  0  0  0  0
    3.6156    2.4872    0.0000 C   0  0  0  0  0  0  0  0  0  0  0  0
    1.9845   -0.4340    0.0000 C   0  0  0  0  0  0  0  0  0  0  0  0
    2.5365    0.1791    0.0000 C   0  0  0  0  0  0  0  0  0  0  0  0
    2.1240    0.8936    0.0000 N   0  0  0  0  0  0  0  0  0  0  0  0
    1.3170    0.7221    0.0000 C   0  0  0  0  0  0  0  0  0  0  0  0
    4.4361    2.5734    0.0000 C   0  0  0  0  0  0  0  0  0  0  0  0
    5.1506    2.9859    0.0000 O   0  0  0  0  0  0  0  0  0  0  0  0
    4.4361    1.7484    0.0000 N   0  0  0  0  0  0  0  0  0  0  0  0
 32 33  2  0        0
 32 34  1  0        0
 32 27  1  0        0
  1  2  2  0        0
  2  3  1  0        0
  3  4  2  0        0
  4  5  1  0        0
  5  6  2  0        0
  6  1  1  0        0
  1  7  1  0        0
  7  8  1  0        0
  8  9  1  0        0
  9  2  1  0        0
  8 10  1  0        0
 10 11  2  0        0
 10 12  2  0        0
 10 13  1  0        0
 13 14  2  0        0
 14 15  1  0        0
 15 16  2  0        0
 16 17  1  0        0
 17 18  2  0        0
 18 13  1  0        0
 16 19  1  0        0
 14 20  1  0        0
  4 21  1  0        0
 22 21  1  6        0
 23 24  1  0        0
 23 25  2  0        0
 24 26  1  6        0
 27 24  1  0        0
 22 28  1  0        0
 28 29  1  0        0
 29 30  1  0        0
 30 31  1  0        0
 31 22  1  0        0
 23 30  1  0        0
M  STY  1   1 SUP
M  SLB  1   1   1
M  SAL   1  3  32  33  34
M  SBL   1  1   3
M  SMT   1 CONH2
M  SBV   1   3   -0.8205   -0.0862
M  END
>  <PDHK IC50 nM>
156

>  <pIC50>
6.8

>  <paper>
Tso_2017

>  <compound No.>
21

$$$$
C22H27N5O6S
  cdxl180110032016272D

 34 37  0  0  1  0  0  0  0  0999 V2000
   -1.6271    0.7266    0.0000 C   0  0  0  0  0  0  0  0  0  0  0  0
   -1.6271   -0.0984    0.0000 C   0  0  0  0  0  0  0  0  0  0  0  0
   -0.9126   -0.5109    0.0000 C   0  0  0  0  0  0  0  0  0  0  0  0
   -0.1981   -0.0984    0.0000 C   0  0  0  0  0  0  0  0  0  0  0  0
   -0.1981    0.7266    0.0000 C   0  0  0  0  0  0  0  0  0  0  0  0
   -0.9126    1.1391    0.0000 C   0  0  0  0  0  0  0  0  0  0  0  0
   -2.4117    0.9815    0.0000 C   0  0  0  0  0  0  0  0  0  0  0  0
   -2.8966    0.3141    0.0000 N   0  0  0  0  0  0  0  0  0  0  0  0
   -2.4117   -0.3534    0.0000 C   0  0  0  0  0  0  0  0  0  0  0  0
   -3.7216    0.3141    0.0000 S   0  0  0  0  0  0  0  0  0  0  0  0
   -3.7216    1.1391    0.0000 O   0  0  0  0  0  0  0  0  0  0  0  0
   -4.5466    0.3141    0.0000 O   0  0  0  0  0  0  0  0  0  0  0  0
   -3.7216   -0.5109    0.0000 C   0  0  0  0  0  0  0  0  0  0  0  0
   -4.4361   -0.9234    0.0000 C   0  0  0  0  0  0  0  0  0  0  0  0
   -4.4361   -1.7484    0.0000 C   0  0  0  0  0  0  0  0  0  0  0  0
   -3.7216   -2.1609    0.0000 C   0  0  0  0  0  0  0  0  0  0  0  0
   -3.0072   -1.7484    0.0000 C   0  0  0  0  0  0  0  0  0  0  0  0
   -3.0072   -0.9234    0.0000 C   0  0  0  0  0  0  0  0  0  0  0  0
   -3.7216   -2.9859    0.0000 O   0  0  0  0  0  0  0  0  0  0  0  0
   -5.1506   -0.5109    0.0000 O   0  0  0  0  0  0  0  0  0  0  0  0
    0.5163   -0.5109    0.0000 N   0  0  0  0  0  0  0  0  0  0  0  0
    1.2308   -0.0984    0.0000 C   0  0  0  0  0  0  0  0  0  0  0  0
    2.4596    1.6473    0.0000 C   0  0  0  0  0  0  0  0  0  0  0  0
    3.2801    1.7335    0.0000 C   0  0  0  0  0  0  0  0  0  0  0  0
    1.9746    2.3147    0.0000 O   0  0  0  0  0  0  0  0  0  0  0  0
    3.7650    1.0661    0.0000 N   0  0  0  0  0  0  0  0  0  0  0  0
    3.6156    2.4872    0.0000 C   0  0  0  0  0  0  0  0  0  0  0  0
    1.9845   -0.4340    0.0000 C   0  0  0  0  0  0  0  0  0  0  0  0
    2.5365    0.1791    0.0000 C   0  0  0  0  0  0  0  0  0  0  0  0
    2.1240    0.8936    0.0000 N   0  0  0  0  0  0  0  0  0  0  0  0
    1.3170    0.7221    0.0000 C   0  0  0  0  0  0  0  0  0  0  0  0
    4.4361    2.5734    0.0000 C   0  0  0  0  0  0  0  0  0  0  0  0
    5.1506    2.9859    0.0000 O   0  0  0  0  0  0  0  0  0  0  0  0
    4.4361    1.7484    0.0000 N   0  0  0  0  0  0  0  0  0  0  0  0
 32 33  2  0        0
 32 34  1  0        0
 32 27  1  0        0
  1  2  2  0        0
  2  3  1  0        0
  3  4  2  0        0
  4  5  1  0        0
  5  6  2  0        0
  6  1  1  0        0
  1  7  1  0        0
  7  8  1  0        0
  8  9  1  0        0
  9  2  1  0        0
  8 10  1  0        0
 10 11  2  0        0
 10 12  2  0        0
 10 13  1  0        0
 13 14  2  0        0
 14 15  1  0        0
 15 16  2  0        0
 16 17  1  0        0
 17 18  2  0        0
 18 13  1  0        0
 16 19  1  0        0
 14 20  1  0        0
  4 21  1  0        0
 22 21  1  1        0
 23 24  1  0        0
 23 25  2  0        0
 24 26  1  6        0
 27 24  1  0        0
 22 28  1  0        0
 28 29  1  0        0
 29 30  1  0        0
 30 31  1  0        0
 31 22  1  0        0
 23 30  1  0        0
M  STY  1   1 SUP
M  SLB  1   1   1
M  SAL   1  3  32  33  34
M  SBL   1  1   3
M  SMT   1 CONH2
M  SBV   1   3   -0.8205   -0.0862
M  END
>  <PDHK IC50 nM>
221

>  <pIC50>
6.7

>  <paper>
Tso_2017

>  <compound No.>
22

$$$$
C21H25N5O6S
  cdxl180110032016272D

 33 36  0  0  1  0  0  0  0  0999 V2000
   -1.0243    0.1105    0.0000 C   0  0  0  0  0  0  0  0  0  0  0  0
   -1.0243   -0.7145    0.0000 C   0  0  0  0  0  0  0  0  0  0  0  0
   -0.3098   -1.1270    0.0000 C   0  0  0  0  0  0  0  0  0  0  0  0
    0.4046   -0.7145    0.0000 C   0  0  0  0  0  0  0  0  0  0  0  0
    0.4046    0.1105    0.0000 C   0  0  0  0  0  0  0  0  0  0  0  0
   -0.3098    0.5230    0.0000 C   0  0  0  0  0  0  0  0  0  0  0  0
   -1.8089    0.3655    0.0000 C   0  0  0  0  0  0  0  0  0  0  0  0
   -2.2938   -0.3020    0.0000 N   0  0  0  0  0  0  0  0  0  0  0  0
   -1.8089   -0.9694    0.0000 C   0  0  0  0  0  0  0  0  0  0  0  0
   -3.1188   -0.3020    0.0000 S   0  0  0  0  0  0  0  0  0  0  0  0
   -3.1188    0.5230    0.0000 O   0  0  0  0  0  0  0  0  0  0  0  0
   -3.1188   -1.1270    0.0000 O   0  0  0  0  0  0  0  0  0  0  0  0
   -3.9438   -0.3020    0.0000 C   0  0  0  0  0  0  0  0  0  0  0  0
   -4.3563    0.4125    0.0000 C   0  0  0  0  0  0  0  0  0  0  0  0
   -5.1813    0.4125    0.0000 C   0  0  0  0  0  0  0  0  0  0  0  0
   -5.5938   -0.3020    0.0000 C   0  0  0  0  0  0  0  0  0  0  0  0
   -5.1813   -1.0164    0.0000 C   0  0  0  0  0  0  0  0  0  0  0  0
   -4.3563   -1.0164    0.0000 C   0  0  0  0  0  0  0  0  0  0  0  0
   -6.4188   -0.3020    0.0000 O   0  0  0  0  0  0  0  0  0  0  0  0
   -3.9438    1.1270    0.0000 O   0  0  0  0  0  0  0  0  0  0  0  0
    1.1191   -1.1270    0.0000 N   0  0  0  0  0  0  0  0  0  0  0  0
    1.8336   -0.7145    0.0000 C   0  0  0  0  0  0  0  0  0  0  0  0
    3.5585    0.2814    0.0000 C   0  0  0  0  0  0  0  0  0  0  0  0
    4.2729   -0.1311    0.0000 C   0  0  0  0  0  0  0  0  0  0  0  0
    3.5585    1.1064    0.0000 O   0  0  0  0  0  0  0  0  0  0  0  0
    4.2729   -0.9561    0.0000 N   0  0  0  0  0  0  0  0  0  0  0  0
    4.9874    0.2814    0.0000 C   0  0  0  0  0  0  0  0  0  0  0  0
    2.6305   -0.9280    0.0000 C   0  0  0  0  0  0  0  0  0  0  0  0
    2.8440   -0.1311    0.0000 N   0  0  0  0  0  0  0  0  0  0  0  0
    2.0471    0.0824    0.0000 C   0  0  0  0  0  0  0  0  0  0  0  0
    5.7019   -0.1311    0.0000 C   0  0  0  0  0  0  0  0  0  0  0  0
    6.4188    0.2828    0.0000 O   0  0  0  0  0  0  0  0  0  0  0  0
    5.7019   -0.9590    0.0000 N   0  0  0  0  0  0  0  0  0  0  0  0
 31 32  2  0        0
 31 33  1  0        0
 31 27  1  0        0
  1  2  2  0        0
  2  3  1  0        0
  3  4  2  0        0
  4  5  1  0        0
  5  6  2  0        0
  6  1  1  0        0
  1  7  1  0        0
  7  8  1  0        0
  8  9  1  0        0
  9  2  1  0        0
  8 10  1  0        0
 10 11  2  0        0
 10 12  2  0        0
 10 13  1  0        0
 13 14  2  0        0
 14 15  1  0        0
 15 16  2  0        0
 16 17  1  0        0
 17 18  2  0        0
 18 13  1  0        0
 16 19  1  0        0
 14 20  1  0        0
  4 21  1  0        0
 22 21  1  6        0
 23 24  1  0        0
 23 25  2  0        0
 24 26  1  6        0
 27 24  1  0        0
 22 28  1  0        0
 29 30  1  0        0
 30 22  1  0        0
 23 29  1  0        0
 28 29  1  0        0
M  STY  1   1 SUP
M  SLB  1   1   1
M  SAL   1  3  31  32  33
M  SBL   1  1   3
M  SMT   1 CONH2
M  SBV   1   3   -0.7145    0.4125
M  END
>  <PDHK IC50 nM>
65

>  <pIC50>
7.2

>  <paper>
Tso_2017

>  <compound No.>
23

$$$$
C22H27N5O6S
  cdxl180110032016272D

 34 37  0  0  1  0  0  0  0  0999 V2000
   -2.3107    1.9315    0.0000 C   0  0  0  0  0  0  0  0  0  0  0  0
   -1.9239    1.2028    0.0000 C   0  0  0  0  0  0  0  0  0  0  0  0
   -1.0994    1.1734    0.0000 C   0  0  0  0  0  0  0  0  0  0  0  0
   -0.6617    1.8727    0.0000 C   0  0  0  0  0  0  0  0  0  0  0  0
   -1.0485    2.6014    0.0000 C   0  0  0  0  0  0  0  0  0  0  0  0
   -1.8730    2.6308    0.0000 C   0  0  0  0  0  0  0  0  0  0  0  0
   -3.1233    1.7888    0.0000 C   0  0  0  0  0  0  0  0  0  0  0  0
   -3.2387    0.9719    0.0000 N   0  0  0  0  0  0  0  0  0  0  0  0
   -2.4974    0.6097    0.0000 C   0  0  0  0  0  0  0  0  0  0  0  0
   -3.9674    0.5852    0.0000 S   0  0  0  0  0  0  0  0  0  0  0  0
   -4.5296    1.1890    0.0000 O   0  0  0  0  0  0  0  0  0  0  0  0
   -4.7714    0.4002    0.0000 O   0  0  0  0  0  0  0  0  0  0  0  0
   -3.7824   -0.2188    0.0000 C   0  0  0  0  0  0  0  0  0  0  0  0
   -4.3862   -0.7810    0.0000 C   0  0  0  0  0  0  0  0  0  0  0  0
   -4.2012   -1.5850    0.0000 C   0  0  0  0  0  0  0  0  0  0  0  0
   -3.4124   -1.8268    0.0000 C   0  0  0  0  0  0  0  0  0  0  0  0
   -2.8087   -1.2646    0.0000 C   0  0  0  0  0  0  0  0  0  0  0  0
   -2.9936   -0.4606    0.0000 C   0  0  0  0  0  0  0  0  0  0  0  0
   -3.2274   -2.6308    0.0000 O   0  0  0  0  0  0  0  0  0  0  0  0
   -5.1750   -0.5392    0.0000 O   0  0  0  0  0  0  0  0  0  0  0  0
    0.1627    1.8433    0.0000 N   0  0  0  0  0  0  0  0  0  0  0  0
    0.5495    1.1146    0.0000 C   0  0  0  0  0  0  0  0  0  0  0  0
    1.3740    1.0852    0.0000 C   0  0  0  0  0  0  0  0  0  0  0  0
    1.8117    1.7845    0.0000 N   0  0  0  0  0  0  0  0  0  0  0  0
    1.4249    2.5132    0.0000 C   0  0  0  0  0  0  0  0  0  0  0  0
    0.6004    2.5426    0.0000 C   0  0  0  0  0  0  0  0  0  0  0  0
    2.6362    1.7551    0.0000 C   0  0  0  0  0  0  0  0  0  0  0  0
    3.0487    2.4695    0.0000 O   0  0  0  0  0  0  0  0  0  0  0  0
    3.0359    1.0334    0.0000 C   0  0  0  0  0  0  0  0  0  0  0  0
    2.4525    0.4500    0.0000 N   0  0  0  0  0  0  0  0  0  0  0  0
    3.8528    0.9184    0.0000 C   0  0  0  0  0  0  0  0  0  0  0  0
    4.3609    1.5684    0.0000 C   0  0  0  0  0  0  0  0  0  0  0  0
    4.0530    2.3307    0.0000 O   0  0  0  0  0  0  0  0  0  0  0  0
    5.1750    1.4538    0.0000 N   0  0  0  0  0  0  0  0  0  0  0  0
 32 33  2  0        0
 32 34  1  0        0
 32 31  1  0        0
  1  2  2  0        0
  2  3  1  0        0
  3  4  2  0        0
  4  5  1  0        0
  5  6  2  0        0
  6  1  1  0        0
  1  7  1  0        0
  7  8  1  0        0
  8  9  1  0        0
  9  2  1  0        0
  8 10  1  0        0
 10 11  2  0        0
 10 12  2  0        0
 10 13  1  0        0
 13 14  2  0        0
 14 15  1  0        0
 15 16  2  0        0
 16 17  1  0        0
 17 18  2  0        0
 18 13  1  0        0
 16 19  1  0        0
 14 20  1  0        0
  4 21  1  0        0
 21 22  1  0        0
 22 23  1  0        0
 23 24  1  0        0
 24 25  1  0        0
 25 26  1  0        0
 26 21  1  0        0
 24 27  1  0        0
 27 28  2  0        0
 27 29  1  0        0
 29 30  1  6        0
 29 31  1  0        0
M  STY  1   1 SUP
M  SLB  1   1   1
M  SAL   1  3  32  33  34
M  SBL   1  1   3
M  SMT   1 CONH2
M  SBV   1   3   -0.5080   -0.6500
M  END
>  <PDHK IC50 nM>
767

>  <pIC50>
6.1

>  <paper>
Tso_2017

>  <compound No.>
24

$$$$
C23H29N5O6S
  cdxl180110032016272D

 35 38  0  0  1  0  0  0  0  0999 V2000
   -0.0811    1.8702    0.0000 C   0  0  0  0  0  0  0  0  0  0  0  0
   -0.0811    1.0452    0.0000 C   0  0  0  0  0  0  0  0  0  0  0  0
    0.6334    0.6327    0.0000 C   0  0  0  0  0  0  0  0  0  0  0  0
    1.3478    1.0452    0.0000 C   0  0  0  0  0  0  0  0  0  0  0  0
    1.3478    1.8702    0.0000 C   0  0  0  0  0  0  0  0  0  0  0  0
    0.6334    2.2827    0.0000 C   0  0  0  0  0  0  0  0  0  0  0  0
   -0.8657    2.1251    0.0000 C   0  0  0  0  0  0  0  0  0  0  0  0
   -1.3507    1.4577    0.0000 N   0  0  0  0  0  0  0  0  0  0  0  0
   -0.8657    0.7902    0.0000 C   0  0  0  0  0  0  0  0  0  0  0  0
   -2.1757    1.4577    0.0000 S   0  0  0  0  0  0  0  0  0  0  0  0
   -2.1757    2.2827    0.0000 O   0  0  0  0  0  0  0  0  0  0  0  0
   -2.1757    0.6327    0.0000 O   0  0  0  0  0  0  0  0  0  0  0  0
   -3.0007    1.4577    0.0000 C   0  0  0  0  0  0  0  0  0  0  0  0
   -3.4132    2.1721    0.0000 C   0  0  0  0  0  0  0  0  0  0  0  0
   -4.2382    2.1721    0.0000 C   0  0  0  0  0  0  0  0  0  0  0  0
   -4.6507    1.4577    0.0000 C   0  0  0  0  0  0  0  0  0  0  0  0
   -4.2382    0.7432    0.0000 C   0  0  0  0  0  0  0  0  0  0  0  0
   -3.4132    0.7432    0.0000 C   0  0  0  0  0  0  0  0  0  0  0  0
   -5.4757    1.4577    0.0000 O   0  0  0  0  0  0  0  0  0  0  0  0
   -3.0007    2.8866    0.0000 O   0  0  0  0  0  0  0  0  0  0  0  0
    2.0623    0.6327    0.0000 N   0  0  0  0  0  0  0  0  0  0  0  0
    2.0006   -0.1900    0.0000 C   0  0  0  0  0  0  0  0  0  0  0  0
    2.6054   -0.7512    0.0000 C   0  0  0  0  0  0  0  0  0  0  0  0
    3.4212   -0.6282    0.0000 N   0  0  0  0  0  0  0  0  0  0  0  0
    3.8337   -1.3427    0.0000 C   0  0  0  0  0  0  0  0  0  0  0  0
    4.6587   -1.3427    0.0000 O   0  0  0  0  0  0  0  0  0  0  0  0
    3.4212   -2.0572    0.0000 C   0  0  0  0  0  0  0  0  0  0  0  0
    2.5962   -2.0572    0.0000 N   0  0  0  0  0  0  0  0  0  0  0  0
    3.8337   -2.7716    0.0000 C   0  0  0  0  0  0  0  0  0  0  0  0
    2.7439    1.0974    0.0000 C   0  0  0  0  0  0  0  0  0  0  0  0
    3.5323    0.8542    0.0000 C   0  0  0  0  0  0  0  0  0  0  0  0
    3.8337    0.0863    0.0000 C   0  0  0  0  0  0  0  0  0  0  0  0
    4.6587   -2.7716    0.0000 C   0  0  0  0  0  0  0  0  0  0  0  0
    4.3498   -2.0066    0.0000 O   0  0  0  0  0  0  0  0  0  0  0  0
    5.4757   -2.8866    0.0000 N   0  0  0  0  0  0  0  0  0  0  0  0
 33 34  2  0        0
 33 35  1  0        0
 33 29  1  0        0
  1  2  2  0        0
  2  3  1  0        0
  3  4  2  0        0
  4  5  1  0        0
  5  6  2  0        0
  6  1  1  0        0
  1  7  1  0        0
  7  8  1  0        0
  8  9  1  0        0
  9  2  1  0        0
  8 10  1  0        0
 10 11  2  0        0
 10 12  2  0        0
 10 13  1  0        0
 13 14  2  0        0
 14 15  1  0        0
 15 16  2  0        0
 16 17  1  0        0
 17 18  2  0        0
 18 13  1  0        0
 16 19  1  0        0
 14 20  1  0        0
  4 21  1  0        0
 21 22  1  0        0
 22 23  1  0        0
 23 24  1  0        0
 24 25  1  0        0
 25 26  2  0        0
 25 27  1  0        0
 27 28  1  6        0
 27 29  1  0        0
 21 30  1  0        0
 30 31  1  0        0
 31 32  1  0        0
 32 24  1  0        0
M  STY  1   1 SUP
M  SLB  1   1   1
M  SAL   1  3  33  34  35
M  SBL   1  1   3
M  SMT   1 CONH2
M  SBV   1   3   -0.8250    0.0000
M  END
>  <PDHK IC50 nM>
1514

>  <pIC50>
5.8

>  <paper>
Tso_2017

>  <compound No.>
25

$$$$
C21H27N5O6S
  cdxl180110032016272D

 33 35  0  0  1  0  0  0  0  0999 V2000
   -0.0811    1.8702    0.0000 C   0  0  0  0  0  0  0  0  0  0  0  0
   -0.0811    1.0452    0.0000 C   0  0  0  0  0  0  0  0  0  0  0  0
    0.6334    0.6327    0.0000 C   0  0  0  0  0  0  0  0  0  0  0  0
    1.3478    1.0452    0.0000 C   0  0  0  0  0  0  0  0  0  0  0  0
    1.3478    1.8702    0.0000 C   0  0  0  0  0  0  0  0  0  0  0  0
    0.6334    2.2827    0.0000 C   0  0  0  0  0  0  0  0  0  0  0  0
   -0.8657    2.1251    0.0000 C   0  0  0  0  0  0  0  0  0  0  0  0
   -1.3507    1.4577    0.0000 N   0  0  0  0  0  0  0  0  0  0  0  0
   -0.8657    0.7902    0.0000 C   0  0  0  0  0  0  0  0  0  0  0  0
   -2.1757    1.4577    0.0000 S   0  0  0  0  0  0  0  0  0  0  0  0
   -2.1757    2.2827    0.0000 O   0  0  0  0  0  0  0  0  0  0  0  0
   -2.1757    0.6327    0.0000 O   0  0  0  0  0  0  0  0  0  0  0  0
   -3.0007    1.4577    0.0000 C   0  0  0  0  0  0  0  0  0  0  0  0
   -3.4132    2.1721    0.0000 C   0  0  0  0  0  0  0  0  0  0  0  0
   -4.2382    2.1721    0.0000 C   0  0  0  0  0  0  0  0  0  0  0  0
   -4.6507    1.4577    0.0000 C   0  0  0  0  0  0  0  0  0  0  0  0
   -4.2382    0.7432    0.0000 C   0  0  0  0  0  0  0  0  0  0  0  0
   -3.4132    0.7432    0.0000 C   0  0  0  0  0  0  0  0  0  0  0  0
   -5.4757    1.4577    0.0000 O   0  0  0  0  0  0  0  0  0  0  0  0
   -3.0007    2.8866    0.0000 O   0  0  0  0  0  0  0  0  0  0  0  0
    2.0623    0.6327    0.0000 N   0  0  0  0  0  0  0  0  0  0  0  0
    3.4212   -0.6282    0.0000 N   0  0  0  0  0  0  0  0  0  0  0  0
    3.8337   -1.3427    0.0000 C   0  0  0  0  0  0  0  0  0  0  0  0
    4.6587   -1.3427    0.0000 O   0  0  0  0  0  0  0  0  0  0  0  0
    3.4212   -2.0572    0.0000 C   0  0  0  0  0  0  0  0  0  0  0  0
    2.5962   -2.0572    0.0000 N   0  0  0  0  0  0  0  0  0  0  0  0
    3.8337   -2.7716    0.0000 C   0  0  0  0  0  0  0  0  0  0  0  0
    2.7439    1.0974    0.0000 C   0  0  0  0  0  0  0  0  0  0  0  0
    3.5323    0.8542    0.0000 C   0  0  0  0  0  0  0  0  0  0  0  0
    3.8337    0.0863    0.0000 C   0  0  0  0  0  0  0  0  0  0  0  0
    4.6587   -2.7716    0.0000 C   0  0  0  0  0  0  0  0  0  0  0  0
    4.3498   -2.0066    0.0000 O   0  0  0  0  0  0  0  0  0  0  0  0
    5.4757   -2.8866    0.0000 N   0  0  0  0  0  0  0  0  0  0  0  0
 31 32  2  0        0
 31 33  1  0        0
 31 27  1  0        0
  1  2  2  0        0
  2  3  1  0        0
  3  4  2  0        0
  4  5  1  0        0
  5  6  2  0        0
  6  1  1  0        0
  1  7  1  0        0
  7  8  1  0        0
  8  9  1  0        0
  9  2  1  0        0
  8 10  1  0        0
 10 11  2  0        0
 10 12  2  0        0
 10 13  1  0        0
 13 14  2  0        0
 14 15  1  0        0
 15 16  2  0        0
 16 17  1  0        0
 17 18  2  0        0
 18 13  1  0        0
 16 19  1  0        0
 14 20  1  0        0
  4 21  1  0        0
 22 23  1  0        0
 23 24  2  0        0
 23 25  1  0        0
 25 26  1  6        0
 25 27  1  0        0
 21 28  1  0        0
 28 29  1  0        0
 29 30  1  0        0
 30 22  1  0        0
M  STY  1   1 SUP
M  SLB  1   1   1
M  SAL   1  3  31  32  33
M  SBL   1  1   3
M  SMT   1 CONH2
M  SBV   1   3   -0.8250    0.0000
M  END
>  <PDHK IC50 nM>
67

>  <pIC50>
7.2

>  <paper>
Tso_2017

>  <compound No.>
26

$$$$
C20H25N5O6S
  cdxl180110032016272D

 32 34  0  0  1  0  0  0  0  0999 V2000
   -0.0811    1.8702    0.0000 C   0  0  0  0  0  0  0  0  0  0  0  0
   -0.0811    1.0452    0.0000 C   0  0  0  0  0  0  0  0  0  0  0  0
    0.6334    0.6327    0.0000 C   0  0  0  0  0  0  0  0  0  0  0  0
    1.3478    1.0452    0.0000 C   0  0  0  0  0  0  0  0  0  0  0  0
    1.3478    1.8702    0.0000 C   0  0  0  0  0  0  0  0  0  0  0  0
    0.6334    2.2827    0.0000 C   0  0  0  0  0  0  0  0  0  0  0  0
   -0.8657    2.1251    0.0000 C   0  0  0  0  0  0  0  0  0  0  0  0
   -1.3507    1.4577    0.0000 N   0  0  0  0  0  0  0  0  0  0  0  0
   -0.8657    0.7902    0.0000 C   0  0  0  0  0  0  0  0  0  0  0  0
   -2.1757    1.4577    0.0000 S   0  0  0  0  0  0  0  0  0  0  0  0
   -2.1757    2.2827    0.0000 O   0  0  0  0  0  0  0  0  0  0  0  0
   -2.1757    0.6327    0.0000 O   0  0  0  0  0  0  0  0  0  0  0  0
   -3.0007    1.4577    0.0000 C   0  0  0  0  0  0  0  0  0  0  0  0
   -3.4132    2.1721    0.0000 C   0  0  0  0  0  0  0  0  0  0  0  0
   -4.2382    2.1721    0.0000 C   0  0  0  0  0  0  0  0  0  0  0  0
   -4.6507    1.4577    0.0000 C   0  0  0  0  0  0  0  0  0  0  0  0
   -4.2382    0.7432    0.0000 C   0  0  0  0  0  0  0  0  0  0  0  0
   -3.4132    0.7432    0.0000 C   0  0  0  0  0  0  0  0  0  0  0  0
   -5.4757    1.4577    0.0000 O   0  0  0  0  0  0  0  0  0  0  0  0
   -3.0007    2.8866    0.0000 O   0  0  0  0  0  0  0  0  0  0  0  0
    2.0623    0.6327    0.0000 N   0  0  0  0  0  0  0  0  0  0  0  0
    2.0006   -0.1900    0.0000 C   0  0  0  0  0  0  0  0  0  0  0  0
    2.6054   -0.7512    0.0000 C   0  0  0  0  0  0  0  0  0  0  0  0
    3.4212   -0.6282    0.0000 N   0  0  0  0  0  0  0  0  0  0  0  0
    3.8337   -1.3427    0.0000 C   0  0  0  0  0  0  0  0  0  0  0  0
    4.6587   -1.3427    0.0000 O   0  0  0  0  0  0  0  0  0  0  0  0
    3.4212   -2.0572    0.0000 C   0  0  0  0  0  0  0  0  0  0  0  0
    2.5962   -2.0572    0.0000 N   0  0  0  0  0  0  0  0  0  0  0  0
    3.8337   -2.7716    0.0000 C   0  0  0  0  0  0  0  0  0  0  0  0
    4.6587   -2.7716    0.0000 C   0  0  0  0  0  0  0  0  0  0  0  0
    4.3498   -2.0066    0.0000 O   0  0  0  0  0  0  0  0  0  0  0  0
    5.4757   -2.8866    0.0000 N   0  0  0  0  0  0  0  0  0  0  0  0
 30 31  2  0        0
 30 32  1  0        0
 30 29  1  0        0
  1  2  2  0        0
  2  3  1  0        0
  3  4  2  0        0
  4  5  1  0        0
  5  6  2  0        0
  6  1  1  0        0
  1  7  1  0        0
  7  8  1  0        0
  8  9  1  0        0
  9  2  1  0        0
  8 10  1  0        0
 10 11  2  0        0
 10 12  2  0        0
 10 13  1  0        0
 13 14  2  0        0
 14 15  1  0        0
 15 16  2  0        0
 16 17  1  0        0
 17 18  2  0        0
 18 13  1  0        0
 16 19  1  0        0
 14 20  1  0        0
  4 21  1  0        0
 21 22  1  0        0
 22 23  1  0        0
 23 24  1  0        0
 24 25  1  0        0
 25 26  2  0        0
 25 27  1  0        0
 27 28  1  6        0
 27 29  1  0        0
M  STY  1   1 SUP
M  SLB  1   1   1
M  SAL   1  3  30  31  32
M  SBL   1  1   3
M  SMT   1 CONH2
M  SBV   1   3   -0.8250    0.0000
M  END
>  <PDHK IC50 nM>
357

>  <pIC50>
6.4

>  <paper>
Tso_2017

>  <compound No.>
27

$$$$
C18H13N3O2S
  cdxl180110032016272D

 24 27  0  0  0  0  0  0  0  0999 V2000
   -1.8490   -0.6045    0.0000 C   0  0  0  0  0  0  0  0  0  0  0  0
   -1.8490   -1.4295    0.0000 N   0  0  0  0  0  0  0  0  0  0  0  0
   -1.0644   -1.6844    0.0000 N   0  0  0  0  0  0  0  0  0  0  0  0
   -0.5795   -1.0170    0.0000 C   0  0  0  0  0  0  0  0  0  0  0  0
   -1.0644   -0.3495    0.0000 N   0  0  0  0  0  0  0  0  0  0  0  0
   -2.5165   -0.1195    0.0000 S   0  0  0  0  0  0  0  0  0  0  0  0
   -0.8095    0.4351    0.0000 C   0  0  0  0  0  0  0  0  0  0  0  0
    0.2455   -1.0170    0.0000 C   0  0  0  0  0  0  0  0  0  0  0  0
    0.6580   -1.7314    0.0000 C   0  0  0  0  0  0  0  0  0  0  0  0
    1.4830   -1.7314    0.0000 C   0  0  0  0  0  0  0  0  0  0  0  0
    1.8955   -1.0170    0.0000 C   0  0  0  0  0  0  0  0  0  0  0  0
    1.4830   -0.3025    0.0000 C   0  0  0  0  0  0  0  0  0  0  0  0
    0.6580   -0.3025    0.0000 C   0  0  0  0  0  0  0  0  0  0  0  0
    0.2455   -2.4459    0.0000 O   0  0  0  0  0  0  0  0  0  0  0  0
    2.7205   -1.0170    0.0000 O   0  0  0  0  0  0  0  0  0  0  0  0
   -0.0025    0.6066    0.0000 C   0  0  0  0  0  0  0  0  0  0  0  0
    0.2524    1.3912    0.0000 C   0  0  0  0  0  0  0  0  0  0  0  0
   -0.2996    2.0043    0.0000 C   0  0  0  0  0  0  0  0  0  0  0  0
   -1.1066    1.8328    0.0000 C   0  0  0  0  0  0  0  0  0  0  0  0
   -1.3615    1.0482    0.0000 C   0  0  0  0  0  0  0  0  0  0  0  0
   -1.6586    2.4459    0.0000 C   0  0  0  0  0  0  0  0  0  0  0  0
   -2.4656    2.2744    0.0000 C   0  0  0  0  0  0  0  0  0  0  0  0
   -2.7205    1.4898    0.0000 C   0  0  0  0  0  0  0  0  0  0  0  0
   -2.1685    0.8767    0.0000 C   0  0  0  0  0  0  0  0  0  0  0  0
  1  2  1  0        0
  2  3  1  0        0
  3  4  2  0        0
  4  5  1  0        0
  5  1  1  0        0
  1  6  2  0        0
  5  7  1  0        0
  4  8  1  0        0
  8  9  2  0        0
  9 10  1  0        0
 10 11  2  0        0
 11 12  1  0        0
 12 13  2  0        0
 13  8  1  0        0
  9 14  1  0        0
 11 15  1  0        0
  7 16  2  0        0
 16 17  1  0        0
 17 18  2  0        0
 18 19  1  0        0
 19 20  2  0        0
 20  7  1  0        0
 19 21  1  0        0
 21 22  2  0        0
 22 23  1  0        0
 23 24  2  0        0
 24 20  1  0        0
M  END
>  <PDHK IC50 nM>
3820

>  <pIC50>
5.4

>  <paper>
Tso_2014

>  <compound No.>
DC23

$$$$
C15H12BrNO3
  cdxl180110032016272D

 20 22  0  0  0  0  0  0  0  0999 V2000
   -0.2980   -1.3450    0.0000 C   0  0  0  0  0  0  0  0  0  0  0  0
   -0.3078   -2.1699    0.0000 C   0  0  0  0  0  0  0  0  0  0  0  0
    0.4018   -2.5908    0.0000 C   0  0  0  0  0  0  0  0  0  0  0  0
    1.1211   -2.1868    0.0000 C   0  0  0  0  0  0  0  0  0  0  0  0
    1.1308   -1.3618    0.0000 C   0  0  0  0  0  0  0  0  0  0  0  0
    0.4213   -0.9409    0.0000 C   0  0  0  0  0  0  0  0  0  0  0  0
   -1.0270   -2.5740    0.0000 O   0  0  0  0  0  0  0  0  0  0  0  0
    1.8306   -2.6076    0.0000 O   0  0  0  0  0  0  0  0  0  0  0  0
    1.8501   -0.9578    0.0000 Br  0  0  0  0  0  0  0  0  0  0  0  0
   -1.0076   -0.9241    0.0000 C   0  0  0  0  0  0  0  0  0  0  0  0
   -1.7269   -1.3281    0.0000 O   0  0  0  0  0  0  0  0  0  0  0  0
   -0.9979   -0.0991    0.0000 N   0  0  0  0  0  0  0  0  0  0  0  0
   -0.3411    0.4001    0.0000 C   0  0  0  0  0  0  0  0  0  0  0  0
   -0.6129    1.1790    0.0000 C   0  0  0  0  0  0  0  0  0  0  0  0
   -1.4377    1.1790    0.0000 C   0  0  0  0  0  0  0  0  0  0  0  0
   -1.6756    0.4001    0.0000 C   0  0  0  0  0  0  0  0  0  0  0  0
   -0.2005    1.8933    0.0000 C   0  0  0  0  0  0  0  0  0  0  0  0
   -0.6129    2.6076    0.0000 C   0  0  0  0  0  0  0  0  0  0  0  0
   -1.4377    2.6076    0.0000 C   0  0  0  0  0  0  0  0  0  0  0  0
   -1.8501    1.8933    0.0000 C   0  0  0  0  0  0  0  0  0  0  0  0
  1  2  2  0        0
  2  3  1  0        0
  3  4  2  0        0
  4  5  1  0        0
  5  6  2  0        0
  6  1  1  0        0
  2  7  1  0        0
  4  8  1  0        0
  5  9  1  0        0
  1 10  1  0        0
 10 11  2  0        0
 10 12  1  0        0
 12 13  1  0        0
 13 14  1  0        0
 14 15  2  0        0
 15 16  1  0        0
 16 12  1  0        0
 14 17  1  0        0
 17 18  2  0        0
 18 19  1  0        0
 19 20  2  0        0
 20 15  1  0        0
M  END
>  <PDHK IC50 nM>
6780

>  <pIC50>
5.2

>  <paper>
Tso_2014

>  <compound No.>
PA1

$$$$
C15H13NO3
  cdxl180110032016272D

 19 21  0  0  0  0  0  0  0  0999 V2000
   -0.2883   -1.3450    0.0000 C   0  0  0  0  0  0  0  0  0  0  0  0
   -0.2980   -2.1699    0.0000 C   0  0  0  0  0  0  0  0  0  0  0  0
    0.4115   -2.5908    0.0000 C   0  0  0  0  0  0  0  0  0  0  0  0
    1.1308   -2.1868    0.0000 C   0  0  0  0  0  0  0  0  0  0  0  0
    1.1405   -1.3618    0.0000 C   0  0  0  0  0  0  0  0  0  0  0  0
    0.4310   -0.9409    0.0000 C   0  0  0  0  0  0  0  0  0  0  0  0
   -1.0173   -2.5740    0.0000 O   0  0  0  0  0  0  0  0  0  0  0  0
    1.8404   -2.6076    0.0000 O   0  0  0  0  0  0  0  0  0  0  0  0
   -0.9979   -0.9241    0.0000 C   0  0  0  0  0  0  0  0  0  0  0  0
   -1.7171   -1.3281    0.0000 O   0  0  0  0  0  0  0  0  0  0  0  0
   -0.9881   -0.0991    0.0000 N   0  0  0  0  0  0  0  0  0  0  0  0
   -0.3313    0.4001    0.0000 C   0  0  0  0  0  0  0  0  0  0  0  0
   -0.6032    1.1790    0.0000 C   0  0  0  0  0  0  0  0  0  0  0  0
   -1.4280    1.1790    0.0000 C   0  0  0  0  0  0  0  0  0  0  0  0
   -1.6659    0.4001    0.0000 C   0  0  0  0  0  0  0  0  0  0  0  0
   -0.1908    1.8933    0.0000 C   0  0  0  0  0  0  0  0  0  0  0  0
   -0.6032    2.6076    0.0000 C   0  0  0  0  0  0  0  0  0  0  0  0
   -1.4280    2.6076    0.0000 C   0  0  0  0  0  0  0  0  0  0  0  0
   -1.8404    1.8933    0.0000 C   0  0  0  0  0  0  0  0  0  0  0  0
  1  2  2  0        0
  2  3  1  0        0
  3  4  2  0        0
  4  5  1  0        0
  5  6  2  0        0
  6  1  1  0        0
  2  7  1  0        0
  4  8  1  0        0
  1  9  1  0        0
  9 10  2  0        0
  9 11  1  0        0
 11 12  1  0        0
 12 13  1  0        0
 13 14  2  0        0
 14 15  1  0        0
 15 11  1  0        0
 13 16  1  0        0
 16 17  2  0        0
 17 18  1  0        0
 18 19  2  0        0
 19 14  1  0        0
M  END
>  <PDHK IC50 nM>
5680

>  <pIC50>
5.2

>  <paper>
Tso_2014

>  <compound No.>
PA7

$$$$
C14H13NO4S
  cdxl180110032016272D

 20 22  0  0  0  0  0  0  0  0999 V2000
   -0.2883   -1.3450    0.0000 C   0  0  0  0  0  0  0  0  0  0  0  0
   -0.2980   -2.1699    0.0000 C   0  0  0  0  0  0  0  0  0  0  0  0
    0.4115   -2.5908    0.0000 C   0  0  0  0  0  0  0  0  0  0  0  0
    1.1308   -2.1868    0.0000 C   0  0  0  0  0  0  0  0  0  0  0  0
    1.1405   -1.3618    0.0000 C   0  0  0  0  0  0  0  0  0  0  0  0
    0.4310   -0.9409    0.0000 C   0  0  0  0  0  0  0  0  0  0  0  0
   -1.0173   -2.5740    0.0000 O   0  0  0  0  0  0  0  0  0  0  0  0
    1.8404   -2.6076    0.0000 O   0  0  0  0  0  0  0  0  0  0  0  0
   -0.9979   -0.9241    0.0000 S   0  0  0  0  0  0  0  0  0  0  0  0
   -1.7948   -0.7105    0.0000 O   0  0  0  0  0  0  0  0  0  0  0  0
   -0.9881   -0.0991    0.0000 N   0  0  0  0  0  0  0  0  0  0  0  0
   -0.3313    0.4001    0.0000 C   0  0  0  0  0  0  0  0  0  0  0  0
   -0.6032    1.1790    0.0000 C   0  0  0  0  0  0  0  0  0  0  0  0
   -1.4280    1.1790    0.0000 C   0  0  0  0  0  0  0  0  0  0  0  0
   -1.6659    0.4001    0.0000 C   0  0  0  0  0  0  0  0  0  0  0  0
   -0.1908    1.8933    0.0000 C   0  0  0  0  0  0  0  0  0  0  0  0
   -0.6032    2.6076    0.0000 C   0  0  0  0  0  0  0  0  0  0  0  0
   -1.4280    2.6076    0.0000 C   0  0  0  0  0  0  0  0  0  0  0  0
   -1.8404    1.8933    0.0000 C   0  0  0  0  0  0  0  0  0  0  0  0
   -1.5812   -1.5074    0.0000 O   0  0  0  0  0  0  0  0  0  0  0  0
  1  2  2  0        0
  2  3  1  0        0
  3  4  2  0        0
  4  5  1  0        0
  5  6  2  0        0
  6  1  1  0        0
  2  7  1  0        0
  4  8  1  0        0
  1  9  1  0        0
  9 10  2  0        0
  9 11  1  0        0
 11 12  1  0        0
 12 13  1  0        0
 13 14  2  0        0
 14 15  1  0        0
 15 11  1  0        0
 13 16  1  0        0
 16 17  2  0        0
 17 18  1  0        0
 18 19  2  0        0
 19 14  1  0        0
  9 20  2  0        0
M  END
>  <PDHK IC50 nM>
2110

>  <pIC50>
5.7

>  <paper>
Tso_2014

>  <compound No.>
PS2

$$$$
C14H13NO5S
  cdxl180110032016272D

 21 23  0  0  0  0  0  0  0  0999 V2000
   -0.2883   -1.7022    0.0000 C   0  0  0  0  0  0  0  0  0  0  0  0
   -0.2980   -2.5271    0.0000 C   0  0  0  0  0  0  0  0  0  0  0  0
    0.4116   -2.9480    0.0000 C   0  0  0  0  0  0  0  0  0  0  0  0
    1.1309   -2.5440    0.0000 C   0  0  0  0  0  0  0  0  0  0  0  0
    1.1406   -1.7190    0.0000 C   0  0  0  0  0  0  0  0  0  0  0  0
    0.4310   -1.2981    0.0000 C   0  0  0  0  0  0  0  0  0  0  0  0
   -1.0173   -2.9312    0.0000 O   0  0  0  0  0  0  0  0  0  0  0  0
    1.8404   -2.9649    0.0000 O   0  0  0  0  0  0  0  0  0  0  0  0
   -0.9978   -1.2813    0.0000 S   0  0  0  0  0  0  0  0  0  0  0  0
   -1.7947   -1.0678    0.0000 O   0  0  0  0  0  0  0  0  0  0  0  0
   -0.9881   -0.4564    0.0000 N   0  0  0  0  0  0  0  0  0  0  0  0
   -0.3313    0.0429    0.0000 C   0  0  0  0  0  0  0  0  0  0  0  0
   -0.6031    0.8218    0.0000 C   0  0  0  0  0  0  0  0  0  0  0  0
   -1.4279    0.8218    0.0000 C   0  0  0  0  0  0  0  0  0  0  0  0
   -1.6658    0.0429    0.0000 C   0  0  0  0  0  0  0  0  0  0  0  0
   -0.1907    1.5361    0.0000 C   0  0  0  0  0  0  0  0  0  0  0  0
   -0.6031    2.2504    0.0000 C   0  0  0  0  0  0  0  0  0  0  0  0
   -1.4279    2.2504    0.0000 C   0  0  0  0  0  0  0  0  0  0  0  0
   -1.8403    1.5361    0.0000 C   0  0  0  0  0  0  0  0  0  0  0  0
   -1.5812   -1.8647    0.0000 O   0  0  0  0  0  0  0  0  0  0  0  0
   -1.8404    2.9649    0.0000 O   0  0  0  0  0  0  0  0  0  0  0  0
  1  2  2  0        0
  2  3  1  0        0
  3  4  2  0        0
  4  5  1  0        0
  5  6  2  0        0
  6  1  1  0        0
  2  7  1  0        0
  4  8  1  0        0
  1  9  1  0        0
  9 10  2  0        0
  9 11  1  0        0
 11 12  1  0        0
 12 13  1  0        0
 13 14  2  0        0
 14 15  1  0        0
 15 11  1  0        0
 13 16  1  0        0
 16 17  2  0        0
 17 18  1  0        0
 18 19  2  0        0
 19 14  1  0        0
  9 20  2  0        0
 18 21  1  0        0
M  END
>  <PDHK IC50 nM>
1070

>  <pIC50>
6.0

>  <paper>
Tso_2014

>  <compound No.>
PS8

$$$$
C14H13NO6S
  cdxl180110032016272D

 22 24  0  0  0  0  0  0  0  0999 V2000
   -0.2883   -1.7022    0.0000 C   0  0  0  0  0  0  0  0  0  0  0  0
   -0.2980   -2.5271    0.0000 C   0  0  0  0  0  0  0  0  0  0  0  0
    0.4116   -2.9480    0.0000 C   0  0  0  0  0  0  0  0  0  0  0  0
    1.1309   -2.5440    0.0000 C   0  0  0  0  0  0  0  0  0  0  0  0
    1.1406   -1.7190    0.0000 C   0  0  0  0  0  0  0  0  0  0  0  0
    0.4310   -1.2981    0.0000 C   0  0  0  0  0  0  0  0  0  0  0  0
   -1.0173   -2.9312    0.0000 O   0  0  0  0  0  0  0  0  0  0  0  0
    1.8404   -2.9649    0.0000 O   0  0  0  0  0  0  0  0  0  0  0  0
   -0.9978   -1.2813    0.0000 S   0  0  0  0  0  0  0  0  0  0  0  0
   -1.7947   -1.0678    0.0000 O   0  0  0  0  0  0  0  0  0  0  0  0
   -0.9881   -0.4564    0.0000 N   0  0  0  0  0  0  0  0  0  0  0  0
   -0.3313    0.0429    0.0000 C   0  0  0  0  0  0  0  0  0  0  0  0
   -0.6031    0.8218    0.0000 C   0  0  0  0  0  0  0  0  0  0  0  0
   -1.4279    0.8218    0.0000 C   0  0  0  0  0  0  0  0  0  0  0  0
   -1.6658    0.0429    0.0000 C   0  0  0  0  0  0  0  0  0  0  0  0
   -0.1907    1.5361    0.0000 C   0  0  0  0  0  0  0  0  0  0  0  0
   -0.6031    2.2504    0.0000 C   0  0  0  0  0  0  0  0  0  0  0  0
   -1.4279    2.2504    0.0000 C   0  0  0  0  0  0  0  0  0  0  0  0
   -1.8403    1.5361    0.0000 C   0  0  0  0  0  0  0  0  0  0  0  0
   -1.5812   -1.8647    0.0000 O   0  0  0  0  0  0  0  0  0  0  0  0
   -1.8404    2.9649    0.0000 O   0  0  0  0  0  0  0  0  0  0  0  0
    0.6343    1.5361    0.0000 O   0  0  0  0  0  0  0  0  0  0  0  0
  1  2  2  0        0
  2  3  1  0        0
  3  4  2  0        0
  4  5  1  0        0
  5  6  2  0        0
  6  1  1  0        0
  2  7  1  0        0
  4  8  1  0        0
  1  9  1  0        0
  9 10  2  0        0
  9 11  1  0        0
 11 12  1  0        0
 12 13  1  0        0
 13 14  2  0        0
 14 15  1  0        0
 15 11  1  0        0
 13 16  1  0        0
 16 17  2  0        0
 17 18  1  0        0
 18 19  2  0        0
 19 14  1  0        0
  9 20  2  0        0
 18 21  1  0        0
 16 22  1  0        0
M  END
>  <PDHK IC50 nM>
800

>  <pIC50>
6.1

>  <paper>
Tso_2014

>  <compound No.>
PS10

$$$$
