design_18
     RDKit          3D

 51 53  0  0  0  0  0  0  0  0999 V2000
   -9.4244   -8.5935   -5.3102 C   0  0  0  0  0  0  0  0  0  0  0  0
  -10.1049   -7.2664   -5.0695 C   0  0  0  0  0  0  0  0  0  0  0  0
  -10.5540   -7.2160   -3.7111 N   0  0  0  0  0  0  0  0  0  0  0  0
   -9.7218   -7.2077   -2.6445 N   0  0  0  0  0  0  0  0  0  0  0  0
  -10.4021   -7.1926   -1.5317 N   0  0  0  0  0  0  0  0  0  0  0  0
  -11.6600   -7.1906   -1.8823 N   0  0  0  0  0  0  0  0  0  0  0  0
  -11.7854   -7.2043   -3.2571 C   0  0  0  0  0  0  0  0  0  0  0  0
  -13.0799   -7.2310   -3.8985 C   0  0  0  0  0  0  0  0  0  0  0  0
  -13.3628   -7.5964   -5.1726 C   0  0  0  0  0  0  0  0  0  0  0  0
  -14.6360   -7.6401   -5.6996 C   0  0  0  0  0  0  0  0  0  0  0  0
  -15.7031   -7.3081   -4.9450 C   0  0  0  0  0  0  0  0  0  0  0  0
  -15.4955   -6.9166   -3.6125 C   0  0  0  0  0  0  0  0  0  0  0  0
  -16.6525   -6.5828   -2.8829 N   0  0  0  0  0  0  0  0  0  0  0  0
  -16.6866   -6.1347   -1.5663 C   0  0  0  0  0  0  0  0  0  0  0  0
  -15.6939   -5.9695   -0.8522 O   0  0  0  0  0  0  0  0  0  0  0  0
  -17.9676   -5.8312   -0.9604 N   0  0  0  0  0  0  0  0  0  0  0  0
  -18.0501   -5.3702    0.3838 C   0  0  0  0  0  0  0  0  0  0  0  0
  -17.4800   -4.0548    0.6684 C   0  0  0  0  0  0  0  0  0  0  0  0
  -16.1829   -3.7677    0.9812 C   0  0  0  0  0  0  0  0  0  0  0  0
  -15.7903   -2.4592    1.2269 C   0  0  0  0  0  0  0  0  0  0  0  0
  -16.6679   -1.4227    1.1675 C   0  0  0  0  0  0  0  0  0  0  0  0
  -17.9708   -1.6952    0.8552 C   0  0  0  0  0  0  0  0  0  0  0  0
  -18.3710   -2.9802    0.6108 C   0  0  0  0  0  0  0  0  0  0  0  0
  -19.8066   -3.2343    0.2726 C   0  0  0  0  0  0  0  0  0  0  0  0
  -20.5477   -3.4058    1.4212 O   0  0  0  0  0  0  0  0  0  0  0  0
  -14.2099   -6.8876   -3.1288 C   0  0  0  0  0  0  0  0  0  0  0  0
   -8.4565   -8.6010   -4.8090 H   0  0  0  0  0  0  0  0  0  0  0  0
  -10.0444   -9.3976   -4.9138 H   0  0  0  0  0  0  0  0  0  0  0  0
   -9.2798   -8.7394   -6.3807 H   0  0  0  0  0  0  0  0  0  0  0  0
  -10.9547   -7.1594   -5.7437 H   0  0  0  0  0  0  0  0  0  0  0  0
   -9.4011   -6.4547   -5.2535 H   0  0  0  0  0  0  0  0  0  0  0  0
  -12.5316   -7.8730   -5.8212 H   0  0  0  0  0  0  0  0  0  0  0  0
  -14.7814   -7.9458   -6.7357 H   0  0  0  0  0  0  0  0  0  0  0  0
  -16.7095   -7.3430   -5.3622 H   0  0  0  0  0  0  0  0  0  0  0  0
  -17.5384   -6.6773   -3.3587 H   0  0  0  0  0  0  0  0  0  0  0  0
  -18.8137   -5.9484   -1.4994 H   0  0  0  0  0  0  0  0  0  0  0  0
  -17.4479   -6.0714    0.9616 H   0  0  0  0  0  0  0  0  0  0  0  0
  -19.1047   -5.3389    0.6576 H   0  0  0  0  0  0  0  0  0  0  0  0
  -15.4496   -4.5721    1.0385 H   0  0  0  0  0  0  0  0  0  0  0  0
  -14.7483   -2.2569    1.4746 H   0  0  0  0  0  0  0  0  0  0  0  0
  -16.3415   -0.4014    1.3637 H   0  0  0  0  0  0  0  0  0  0  0  0
  -18.6956   -0.8829    0.8006 H   0  0  0  0  0  0  0  0  0  0  0  0
  -19.8727   -4.1408   -0.3290 H   0  0  0  0  0  0  0  0  0  0  0  0
  -20.2003   -2.3853   -0.2863 H   0  0  0  0  0  0  0  0  0  0  0  0
  -14.0553   -6.5825   -2.0938 H   0  0  0  0  0  0  0  0  0  0  0  0
  -19.4931   -1.9777    2.7317 C   0  0  0  0  0  0  0  0  0  0  0  0
  -20.6442   -2.5066    1.9036 C   0  0  0  0  0  0  0  0  0  0  0  0
  -21.7009   -1.8694    1.8000 O   0  0  0  0  0  0  0  0  0  0  0  0
  -19.8036   -1.8506    3.7586 H   0  0  0  0  0  0  0  0  0  0  0  0
  -18.6655   -2.6712    2.6999 H   0  0  0  0  0  0  0  0  0  0  0  0
  -19.1661   -1.0244    2.3437 H   0  0  0  0  0  0  0  0  0  0  0  0
  1  2  1  0
  2  3  1  0
  3  4  1  0
  4  5  2  0
  5  6  1  0
  6  7  2  0
  7  8  1  0
  8  9  2  0
  9 10  1  0
 10 11  2  0
 11 12  1  0
 12 13  1  0
 13 14  1  0
 14 15  2  0
 14 16  1  0
 16 17  1  0
 17 18  1  0
 18 19  2  0
 19 20  1  0
 20 21  2  0
 21 22  1  0
 22 23  2  0
 23 24  1  0
 24 25  1  0
 12 26  2  0
  3  7  1  0
  8 26  1  0
 18 23  1  0
  1 27  1  0
  1 28  1  0
  1 29  1  0
  2 30  1  0
  2 31  1  0
  9 32  1  0
 10 33  1  0
 11 34  1  0
 13 35  1  0
 16 36  1  0
 17 37  1  0
 17 38  1  0
 19 39  1  0
 20 40  1  0
 21 41  1  0
 22 42  1  0
 24 43  1  0
 24 44  1  0
 26 45  1  0
 46 47  1  0
 46 49  1  0
 46 50  1  0
 46 51  1  0
 47 48  2  0
 25 47  1  0
M  END
>  <CHROM.1>  (1) 
65.54951943,17.31776661,-178.12150393,66.29358976,-86.42720101,92.94566280
-178.26443940,-14.94787201,-5.71806082,-1.84865519,-0.72733613,-0.06183766
0.91603111

>  <Name>  (1) 
design_18

>  <RI>  (1) 
39991000.000000

>  <Rbt.Current_Directory>  (1) 
/pylon5/mc5pksp/smaltr/gateway_workdirs/PROCESS_93251df5-8da2-4fa9-b874-71853b29d1ad

>  <Rbt.Executable>  (1) 
rbdock ($Id: //depot/dev/client3/rdock/2013.1/src/exe/rbdock.cxx#4 $)

>  <Rbt.Library>  (1) 
libRbt.so (2013.1, Build901 2013/11/27)

>  <Rbt.Parameter_File>  (1) 
/home/smaltr/software/rDock_2013.1_src//data/scripts/dock.prm

>  <Rbt.Receptor>  (1) 
/pylon5/mc5pksp/smaltr/gateway_workdirs/PROCESS_93251df5-8da2-4fa9-b874-71853b29d1ad/output/SnD-Target-Sep02/cavity/pocket_docking.prm

>  <SCORE>  (1) 
-23.387500

>  <SCORE.INTER>  (1) 
-21.667500

>  <SCORE.INTER.CONST>  (1) 
1

>  <SCORE.INTER.POLAR>  (1) 
-2.282600

>  <SCORE.INTER.REPUL>  (1) 
0.002201

>  <SCORE.INTER.ROT>  (1) 
6

>  <SCORE.INTER.VDW>  (1) 
-25.317700

>  <SCORE.INTER.norm>  (1) 
-0.833366

>  <SCORE.INTRA>  (1) 
-1.720030

>  <SCORE.INTRA.DIHEDRAL>  (1) 
-0.068457

>  <SCORE.INTRA.DIHEDRAL.0>  (1) 
6.271440

>  <SCORE.INTRA.POLAR>  (1) 
0

>  <SCORE.INTRA.POLAR.0>  (1) 
0

>  <SCORE.INTRA.REPUL>  (1) 
-0.010613

>  <SCORE.INTRA.REPUL.0>  (1) 
0.031068

>  <SCORE.INTRA.VDW>  (1) 
-1.632730

>  <SCORE.INTRA.VDW.0>  (1) 
-0.730908

>  <SCORE.INTRA.norm>  (1) 
-0.066155

>  <SCORE.RESTR>  (1) 
0

>  <SCORE.RESTR.CAVITY>  (1) 
0

>  <SCORE.RESTR.norm>  (1) 
0

>  <SCORE.SYSTEM>  (1) 
0

>  <SCORE.SYSTEM.CONST>  (1) 
0

>  <SCORE.SYSTEM.DIHEDRAL>  (1) 
0

>  <SCORE.SYSTEM.norm>  (1) 
0

>  <SCORE.heavy>  (1) 
26

>  <SCORE.norm>  (1) 
-0.899520

>  <SMILES>  (1) 
CCn1nnnc1-c1cccc(NC(=O)NCc2ccccc2CO)c1

>  <Cycle>  (1) 
228

>  <MolWeight>  (1) 
352.398000

>  <LogP>  (1) 
2.174000

>  <QED>  (1) 
0.630513

>  <SAS>  (1) 
2.224531

$$$$
design_18
     RDKit          3D

 51 53  0  0  0  0  0  0  0  0999 V2000
   -9.4244   -8.5935   -5.3102 C   0  0  0  0  0  0  0  0  0  0  0  0
  -10.1049   -7.2664   -5.0695 C   0  0  0  0  0  0  0  0  0  0  0  0
  -10.5540   -7.2160   -3.7111 N   0  0  0  0  0  0  0  0  0  0  0  0
   -9.7218   -7.2077   -2.6445 N   0  0  0  0  0  0  0  0  0  0  0  0
  -10.4021   -7.1926   -1.5317 N   0  0  0  0  0  0  0  0  0  0  0  0
  -11.6600   -7.1906   -1.8823 N   0  0  0  0  0  0  0  0  0  0  0  0
  -11.7854   -7.2043   -3.2571 C   0  0  0  0  0  0  0  0  0  0  0  0
  -13.0799   -7.2310   -3.8985 C   0  0  0  0  0  0  0  0  0  0  0  0
  -13.3628   -7.5964   -5.1726 C   0  0  0  0  0  0  0  0  0  0  0  0
  -14.6360   -7.6401   -5.6996 C   0  0  0  0  0  0  0  0  0  0  0  0
  -15.7031   -7.3081   -4.9450 C   0  0  0  0  0  0  0  0  0  0  0  0
  -15.4955   -6.9166   -3.6125 C   0  0  0  0  0  0  0  0  0  0  0  0
  -16.6525   -6.5828   -2.8829 N   0  0  0  0  0  0  0  0  0  0  0  0
  -16.6866   -6.1347   -1.5663 C   0  0  0  0  0  0  0  0  0  0  0  0
  -15.6939   -5.9695   -0.8522 O   0  0  0  0  0  0  0  0  0  0  0  0
  -17.9676   -5.8312   -0.9604 N   0  0  0  0  0  0  0  0  0  0  0  0
  -18.0501   -5.3702    0.3838 C   0  0  0  0  0  0  0  0  0  0  0  0
  -17.4800   -4.0548    0.6684 C   0  0  0  0  0  0  0  0  0  0  0  0
  -16.1829   -3.7677    0.9812 C   0  0  0  0  0  0  0  0  0  0  0  0
  -15.7903   -2.4592    1.2269 C   0  0  0  0  0  0  0  0  0  0  0  0
  -16.6679   -1.4227    1.1675 C   0  0  0  0  0  0  0  0  0  0  0  0
  -17.9708   -1.6952    0.8552 C   0  0  0  0  0  0  0  0  0  0  0  0
  -18.3710   -2.9802    0.6108 C   0  0  0  0  0  0  0  0  0  0  0  0
  -19.8066   -3.2343    0.2726 C   0  0  0  0  0  0  0  0  0  0  0  0
  -20.5477   -3.4058    1.4212 O   0  0  0  0  0  0  0  0  0  0  0  0
  -14.2099   -6.8876   -3.1288 C   0  0  0  0  0  0  0  0  0  0  0  0
   -8.4565   -8.6010   -4.8090 H   0  0  0  0  0  0  0  0  0  0  0  0
  -10.0444   -9.3976   -4.9138 H   0  0  0  0  0  0  0  0  0  0  0  0
   -9.2798   -8.7394   -6.3807 H   0  0  0  0  0  0  0  0  0  0  0  0
  -10.9547   -7.1594   -5.7437 H   0  0  0  0  0  0  0  0  0  0  0  0
   -9.4011   -6.4547   -5.2535 H   0  0  0  0  0  0  0  0  0  0  0  0
  -12.5316   -7.8730   -5.8212 H   0  0  0  0  0  0  0  0  0  0  0  0
  -14.7814   -7.9458   -6.7357 H   0  0  0  0  0  0  0  0  0  0  0  0
  -16.7095   -7.3430   -5.3622 H   0  0  0  0  0  0  0  0  0  0  0  0
  -17.5384   -6.6773   -3.3587 H   0  0  0  0  0  0  0  0  0  0  0  0
  -18.8137   -5.9484   -1.4994 H   0  0  0  0  0  0  0  0  0  0  0  0
  -17.4479   -6.0714    0.9616 H   0  0  0  0  0  0  0  0  0  0  0  0
  -19.1047   -5.3389    0.6576 H   0  0  0  0  0  0  0  0  0  0  0  0
  -15.4496   -4.5721    1.0385 H   0  0  0  0  0  0  0  0  0  0  0  0
  -14.7483   -2.2569    1.4746 H   0  0  0  0  0  0  0  0  0  0  0  0
  -16.3415   -0.4014    1.3637 H   0  0  0  0  0  0  0  0  0  0  0  0
  -18.6956   -0.8829    0.8006 H   0  0  0  0  0  0  0  0  0  0  0  0
  -19.8727   -4.1408   -0.3290 H   0  0  0  0  0  0  0  0  0  0  0  0
  -20.2003   -2.3853   -0.2863 H   0  0  0  0  0  0  0  0  0  0  0  0
  -14.0553   -6.5825   -2.0938 H   0  0  0  0  0  0  0  0  0  0  0  0
  -20.6438   -2.5108    1.9013 C   0  0  0  0  0  0  0  0  0  0  0  0
  -22.0586   -2.3461    2.4130 C   0  0  0  0  0  0  0  0  0  0  0  0
  -22.5425   -3.1505    3.2204 O   0  0  0  0  0  0  0  0  0  0  0  0
  -20.4056   -1.7158    1.2099 H   0  0  0  0  0  0  0  0  0  0  0  0
  -19.9467   -2.4785    2.7255 H   0  0  0  0  0  0  0  0  0  0  0  0
  -22.6607   -1.5065    2.0654 H   0  0  0  0  0  0  0  0  0  0  0  0
  1  2  1  0
  2  3  1  0
  3  4  1  0
  4  5  2  0
  5  6  1  0
  6  7  2  0
  7  8  1  0
  8  9  2  0
  9 10  1  0
 10 11  2  0
 11 12  1  0
 12 13  1  0
 13 14  1  0
 14 15  2  0
 14 16  1  0
 16 17  1  0
 17 18  1  0
 18 19  2  0
 19 20  1  0
 20 21  2  0
 21 22  1  0
 22 23  2  0
 23 24  1  0
 24 25  1  0
 12 26  2  0
  3  7  1  0
  8 26  1  0
 18 23  1  0
  1 27  1  0
  1 28  1  0
  1 29  1  0
  2 30  1  0
  2 31  1  0
  9 32  1  0
 10 33  1  0
 11 34  1  0
 13 35  1  0
 16 36  1  0
 17 37  1  0
 17 38  1  0
 19 39  1  0
 20 40  1  0
 21 41  1  0
 22 42  1  0
 24 43  1  0
 24 44  1  0
 26 45  1  0
 46 47  1  0
 46 49  1  0
 46 50  1  0
 47 48  2  0
 47 51  1  0
 25 46  1  0
M  END
>  <CHROM.1>  (2) 
65.54951943,17.31776661,-178.12150393,66.29358976,-86.42720101,92.94566280
-178.26443940,-14.94787201,-5.71806082,-1.84865519,-0.72733613,-0.06183766
0.91603111

>  <Name>  (2) 
design_18

>  <RI>  (2) 
39991000.000000

>  <Rbt.Current_Directory>  (2) 
/pylon5/mc5pksp/smaltr/gateway_workdirs/PROCESS_93251df5-8da2-4fa9-b874-71853b29d1ad

>  <Rbt.Executable>  (2) 
rbdock ($Id: //depot/dev/client3/rdock/2013.1/src/exe/rbdock.cxx#4 $)

>  <Rbt.Library>  (2) 
libRbt.so (2013.1, Build901 2013/11/27)

>  <Rbt.Parameter_File>  (2) 
/home/smaltr/software/rDock_2013.1_src//data/scripts/dock.prm

>  <Rbt.Receptor>  (2) 
/pylon5/mc5pksp/smaltr/gateway_workdirs/PROCESS_93251df5-8da2-4fa9-b874-71853b29d1ad/output/SnD-Target-Sep02/cavity/pocket_docking.prm

>  <SCORE>  (2) 
-23.387500

>  <SCORE.INTER>  (2) 
-21.667500

>  <SCORE.INTER.CONST>  (2) 
1

>  <SCORE.INTER.POLAR>  (2) 
-2.282600

>  <SCORE.INTER.REPUL>  (2) 
0.002201

>  <SCORE.INTER.ROT>  (2) 
6

>  <SCORE.INTER.VDW>  (2) 
-25.317700

>  <SCORE.INTER.norm>  (2) 
-0.833366

>  <SCORE.INTRA>  (2) 
-1.720030

>  <SCORE.INTRA.DIHEDRAL>  (2) 
-0.068457

>  <SCORE.INTRA.DIHEDRAL.0>  (2) 
6.271440

>  <SCORE.INTRA.POLAR>  (2) 
0

>  <SCORE.INTRA.POLAR.0>  (2) 
0

>  <SCORE.INTRA.REPUL>  (2) 
-0.010613

>  <SCORE.INTRA.REPUL.0>  (2) 
0.031068

>  <SCORE.INTRA.VDW>  (2) 
-1.632730

>  <SCORE.INTRA.VDW.0>  (2) 
-0.730908

>  <SCORE.INTRA.norm>  (2) 
-0.066155

>  <SCORE.RESTR>  (2) 
0

>  <SCORE.RESTR.CAVITY>  (2) 
0

>  <SCORE.RESTR.norm>  (2) 
0

>  <SCORE.SYSTEM>  (2) 
0

>  <SCORE.SYSTEM.CONST>  (2) 
0

>  <SCORE.SYSTEM.DIHEDRAL>  (2) 
0

>  <SCORE.SYSTEM.norm>  (2) 
0

>  <SCORE.heavy>  (2) 
26

>  <SCORE.norm>  (2) 
-0.899520

>  <SMILES>  (2) 
CCn1nnnc1-c1cccc(NC(=O)NCc2ccccc2CO)c1

>  <Cycle>  (2) 
228

>  <MolWeight>  (2) 
352.398000

>  <LogP>  (2) 
2.174000

>  <QED>  (2) 
0.630513

>  <SAS>  (2) 
2.224531

$$$$
design_18
     RDKit          3D

 51 53  0  0  0  0  0  0  0  0999 V2000
   -9.4244   -8.5935   -5.3102 C   0  0  0  0  0  0  0  0  0  0  0  0
  -10.1049   -7.2664   -5.0695 C   0  0  0  0  0  0  0  0  0  0  0  0
  -10.5540   -7.2160   -3.7111 N   0  0  0  0  0  0  0  0  0  0  0  0
   -9.7218   -7.2077   -2.6445 N   0  0  0  0  0  0  0  0  0  0  0  0
  -10.4021   -7.1926   -1.5317 N   0  0  0  0  0  0  0  0  0  0  0  0
  -11.6600   -7.1906   -1.8823 N   0  0  0  0  0  0  0  0  0  0  0  0
  -11.7854   -7.2043   -3.2571 C   0  0  0  0  0  0  0  0  0  0  0  0
  -13.0799   -7.2310   -3.8985 C   0  0  0  0  0  0  0  0  0  0  0  0
  -13.3628   -7.5964   -5.1726 C   0  0  0  0  0  0  0  0  0  0  0  0
  -14.6360   -7.6401   -5.6996 C   0  0  0  0  0  0  0  0  0  0  0  0
  -15.7031   -7.3081   -4.9450 C   0  0  0  0  0  0  0  0  0  0  0  0
  -15.4955   -6.9166   -3.6125 C   0  0  0  0  0  0  0  0  0  0  0  0
  -16.6525   -6.5828   -2.8829 N   0  0  0  0  0  0  0  0  0  0  0  0
  -16.6866   -6.1347   -1.5663 C   0  0  0  0  0  0  0  0  0  0  0  0
  -15.6939   -5.9695   -0.8522 O   0  0  0  0  0  0  0  0  0  0  0  0
  -17.9676   -5.8312   -0.9604 N   0  0  0  0  0  0  0  0  0  0  0  0
  -18.0501   -5.3702    0.3838 C   0  0  0  0  0  0  0  0  0  0  0  0
  -17.4800   -4.0548    0.6684 C   0  0  0  0  0  0  0  0  0  0  0  0
  -16.1829   -3.7677    0.9812 C   0  0  0  0  0  0  0  0  0  0  0  0
  -15.7903   -2.4592    1.2269 C   0  0  0  0  0  0  0  0  0  0  0  0
  -16.6679   -1.4227    1.1675 C   0  0  0  0  0  0  0  0  0  0  0  0
  -17.9708   -1.6952    0.8552 C   0  0  0  0  0  0  0  0  0  0  0  0
  -18.3710   -2.9802    0.6108 C   0  0  0  0  0  0  0  0  0  0  0  0
  -19.8066   -3.2343    0.2726 C   0  0  0  0  0  0  0  0  0  0  0  0
  -20.5477   -3.4058    1.4212 O   0  0  0  0  0  0  0  0  0  0  0  0
  -14.2099   -6.8876   -3.1288 C   0  0  0  0  0  0  0  0  0  0  0  0
   -8.4565   -8.6010   -4.8090 H   0  0  0  0  0  0  0  0  0  0  0  0
  -10.0444   -9.3976   -4.9138 H   0  0  0  0  0  0  0  0  0  0  0  0
   -9.2798   -8.7394   -6.3807 H   0  0  0  0  0  0  0  0  0  0  0  0
  -10.9547   -7.1594   -5.7437 H   0  0  0  0  0  0  0  0  0  0  0  0
   -9.4011   -6.4547   -5.2535 H   0  0  0  0  0  0  0  0  0  0  0  0
  -12.5316   -7.8730   -5.8212 H   0  0  0  0  0  0  0  0  0  0  0  0
  -16.7095   -7.3430   -5.3622 H   0  0  0  0  0  0  0  0  0  0  0  0
  -17.5384   -6.6773   -3.3587 H   0  0  0  0  0  0  0  0  0  0  0  0
  -18.8137   -5.9484   -1.4994 H   0  0  0  0  0  0  0  0  0  0  0  0
  -17.4479   -6.0714    0.9616 H   0  0  0  0  0  0  0  0  0  0  0  0
  -19.1047   -5.3389    0.6576 H   0  0  0  0  0  0  0  0  0  0  0  0
  -15.4496   -4.5721    1.0385 H   0  0  0  0  0  0  0  0  0  0  0  0
  -14.7483   -2.2569    1.4746 H   0  0  0  0  0  0  0  0  0  0  0  0
  -16.3415   -0.4014    1.3637 H   0  0  0  0  0  0  0  0  0  0  0  0
  -18.6956   -0.8829    0.8006 H   0  0  0  0  0  0  0  0  0  0  0  0
  -19.8727   -4.1408   -0.3290 H   0  0  0  0  0  0  0  0  0  0  0  0
  -20.2003   -2.3853   -0.2863 H   0  0  0  0  0  0  0  0  0  0  0  0
  -20.6381   -2.5636    1.8730 H   0  0  0  0  0  0  0  0  0  0  0  0
  -14.0553   -6.5825   -2.0938 H   0  0  0  0  0  0  0  0  0  0  0  0
  -13.7255   -7.6106   -7.7668 C   0  0  0  0  0  0  0  0  0  0  0  0
  -14.7814   -7.9458   -6.7357 C   0  0  0  0  0  0  0  0  0  0  0  0
  -15.8080   -8.5621   -7.0512 O   0  0  0  0  0  0  0  0  0  0  0  0
  -14.1510   -6.9943   -8.5455 H   0  0  0  0  0  0  0  0  0  0  0  0
  -12.9116   -7.0739   -7.3017 H   0  0  0  0  0  0  0  0  0  0  0  0
  -13.3397   -8.5172   -8.2089 H   0  0  0  0  0  0  0  0  0  0  0  0
  1  2  1  0
  2  3  1  0
  3  4  1  0
  4  5  2  0
  5  6  1  0
  6  7  2  0
  7  8  1  0
  8  9  2  0
  9 10  1  0
 10 11  2  0
 11 12  1  0
 12 13  1  0
 13 14  1  0
 14 15  2  0
 14 16  1  0
 16 17  1  0
 17 18  1  0
 18 19  2  0
 19 20  1  0
 20 21  2  0
 21 22  1  0
 22 23  2  0
 23 24  1  0
 24 25  1  0
 12 26  2  0
  3  7  1  0
  8 26  1  0
 18 23  1  0
  1 27  1  0
  1 28  1  0
  1 29  1  0
  2 30  1  0
  2 31  1  0
  9 32  1  0
 11 33  1  0
 13 34  1  0
 16 35  1  0
 17 36  1  0
 17 37  1  0
 19 38  1  0
 20 39  1  0
 21 40  1  0
 22 41  1  0
 24 42  1  0
 24 43  1  0
 25 44  1  0
 26 45  1  0
 46 47  1  0
 46 49  1  0
 46 50  1  0
 46 51  1  0
 47 48  2  0
 10 47  1  0
M  END
>  <CHROM.1>  (3) 
65.54951943,17.31776661,-178.12150393,66.29358976,-86.42720101,92.94566280
-178.26443940,-14.94787201,-5.71806082,-1.84865519,-0.72733613,-0.06183766
0.91603111

>  <Name>  (3) 
design_18

>  <RI>  (3) 
39991000.000000

>  <Rbt.Current_Directory>  (3) 
/pylon5/mc5pksp/smaltr/gateway_workdirs/PROCESS_93251df5-8da2-4fa9-b874-71853b29d1ad

>  <Rbt.Executable>  (3) 
rbdock ($Id: //depot/dev/client3/rdock/2013.1/src/exe/rbdock.cxx#4 $)

>  <Rbt.Library>  (3) 
libRbt.so (2013.1, Build901 2013/11/27)

>  <Rbt.Parameter_File>  (3) 
/home/smaltr/software/rDock_2013.1_src//data/scripts/dock.prm

>  <Rbt.Receptor>  (3) 
/pylon5/mc5pksp/smaltr/gateway_workdirs/PROCESS_93251df5-8da2-4fa9-b874-71853b29d1ad/output/SnD-Target-Sep02/cavity/pocket_docking.prm

>  <SCORE>  (3) 
-23.387500

>  <SCORE.INTER>  (3) 
-21.667500

>  <SCORE.INTER.CONST>  (3) 
1

>  <SCORE.INTER.POLAR>  (3) 
-2.282600

>  <SCORE.INTER.REPUL>  (3) 
0.002201

>  <SCORE.INTER.ROT>  (3) 
6

>  <SCORE.INTER.VDW>  (3) 
-25.317700

>  <SCORE.INTER.norm>  (3) 
-0.833366

>  <SCORE.INTRA>  (3) 
-1.720030

>  <SCORE.INTRA.DIHEDRAL>  (3) 
-0.068457

>  <SCORE.INTRA.DIHEDRAL.0>  (3) 
6.271440

>  <SCORE.INTRA.POLAR>  (3) 
0

>  <SCORE.INTRA.POLAR.0>  (3) 
0

>  <SCORE.INTRA.REPUL>  (3) 
-0.010613

>  <SCORE.INTRA.REPUL.0>  (3) 
0.031068

>  <SCORE.INTRA.VDW>  (3) 
-1.632730

>  <SCORE.INTRA.VDW.0>  (3) 
-0.730908

>  <SCORE.INTRA.norm>  (3) 
-0.066155

>  <SCORE.RESTR>  (3) 
0

>  <SCORE.RESTR.CAVITY>  (3) 
0

>  <SCORE.RESTR.norm>  (3) 
0

>  <SCORE.SYSTEM>  (3) 
0

>  <SCORE.SYSTEM.CONST>  (3) 
0

>  <SCORE.SYSTEM.DIHEDRAL>  (3) 
0

>  <SCORE.SYSTEM.norm>  (3) 
0

>  <SCORE.heavy>  (3) 
26

>  <SCORE.norm>  (3) 
-0.899520

>  <SMILES>  (3) 
CCn1nnnc1-c1cccc(NC(=O)NCc2ccccc2CO)c1

>  <Cycle>  (3) 
228

>  <MolWeight>  (3) 
352.398000

>  <LogP>  (3) 
2.174000

>  <QED>  (3) 
0.630513

>  <SAS>  (3) 
2.224531

$$$$
design_18
     RDKit          3D

 51 53  0  0  0  0  0  0  0  0999 V2000
   -9.4244   -8.5935   -5.3102 C   0  0  0  0  0  0  0  0  0  0  0  0
  -10.1049   -7.2664   -5.0695 C   0  0  0  0  0  0  0  0  0  0  0  0
  -10.5540   -7.2160   -3.7111 N   0  0  0  0  0  0  0  0  0  0  0  0
   -9.7218   -7.2077   -2.6445 N   0  0  0  0  0  0  0  0  0  0  0  0
  -10.4021   -7.1926   -1.5317 N   0  0  0  0  0  0  0  0  0  0  0  0
  -11.6600   -7.1906   -1.8823 N   0  0  0  0  0  0  0  0  0  0  0  0
  -11.7854   -7.2043   -3.2571 C   0  0  0  0  0  0  0  0  0  0  0  0
  -13.0799   -7.2310   -3.8985 C   0  0  0  0  0  0  0  0  0  0  0  0
  -13.3628   -7.5964   -5.1726 C   0  0  0  0  0  0  0  0  0  0  0  0
  -14.6360   -7.6401   -5.6996 C   0  0  0  0  0  0  0  0  0  0  0  0
  -15.7031   -7.3081   -4.9450 C   0  0  0  0  0  0  0  0  0  0  0  0
  -15.4955   -6.9166   -3.6125 C   0  0  0  0  0  0  0  0  0  0  0  0
  -16.6525   -6.5828   -2.8829 N   0  0  0  0  0  0  0  0  0  0  0  0
  -16.6866   -6.1347   -1.5663 C   0  0  0  0  0  0  0  0  0  0  0  0
  -15.6939   -5.9695   -0.8522 O   0  0  0  0  0  0  0  0  0  0  0  0
  -17.9676   -5.8312   -0.9604 N   0  0  0  0  0  0  0  0  0  0  0  0
  -18.0501   -5.3702    0.3838 C   0  0  0  0  0  0  0  0  0  0  0  0
  -17.4800   -4.0548    0.6684 C   0  0  0  0  0  0  0  0  0  0  0  0
  -16.1829   -3.7677    0.9812 C   0  0  0  0  0  0  0  0  0  0  0  0
  -15.7903   -2.4592    1.2269 C   0  0  0  0  0  0  0  0  0  0  0  0
  -16.6679   -1.4227    1.1675 C   0  0  0  0  0  0  0  0  0  0  0  0
  -17.9708   -1.6952    0.8552 C   0  0  0  0  0  0  0  0  0  0  0  0
  -18.3710   -2.9802    0.6108 C   0  0  0  0  0  0  0  0  0  0  0  0
  -19.8066   -3.2343    0.2726 C   0  0  0  0  0  0  0  0  0  0  0  0
  -20.5477   -3.4058    1.4212 O   0  0  0  0  0  0  0  0  0  0  0  0
  -14.2099   -6.8876   -3.1288 C   0  0  0  0  0  0  0  0  0  0  0  0
   -8.4565   -8.6010   -4.8090 H   0  0  0  0  0  0  0  0  0  0  0  0
  -10.0444   -9.3976   -4.9138 H   0  0  0  0  0  0  0  0  0  0  0  0
   -9.2798   -8.7394   -6.3807 H   0  0  0  0  0  0  0  0  0  0  0  0
  -10.9547   -7.1594   -5.7437 H   0  0  0  0  0  0  0  0  0  0  0  0
   -9.4011   -6.4547   -5.2535 H   0  0  0  0  0  0  0  0  0  0  0  0
  -12.5316   -7.8730   -5.8212 H   0  0  0  0  0  0  0  0  0  0  0  0
  -16.7095   -7.3430   -5.3622 H   0  0  0  0  0  0  0  0  0  0  0  0
  -17.5384   -6.6773   -3.3587 H   0  0  0  0  0  0  0  0  0  0  0  0
  -18.8137   -5.9484   -1.4994 H   0  0  0  0  0  0  0  0  0  0  0  0
  -17.4479   -6.0714    0.9616 H   0  0  0  0  0  0  0  0  0  0  0  0
  -19.1047   -5.3389    0.6576 H   0  0  0  0  0  0  0  0  0  0  0  0
  -15.4496   -4.5721    1.0385 H   0  0  0  0  0  0  0  0  0  0  0  0
  -14.7483   -2.2569    1.4746 H   0  0  0  0  0  0  0  0  0  0  0  0
  -16.3415   -0.4014    1.3637 H   0  0  0  0  0  0  0  0  0  0  0  0
  -18.6956   -0.8829    0.8006 H   0  0  0  0  0  0  0  0  0  0  0  0
  -19.8727   -4.1408   -0.3290 H   0  0  0  0  0  0  0  0  0  0  0  0
  -20.2003   -2.3853   -0.2863 H   0  0  0  0  0  0  0  0  0  0  0  0
  -20.6381   -2.5636    1.8730 H   0  0  0  0  0  0  0  0  0  0  0  0
  -14.0553   -6.5825   -2.0938 H   0  0  0  0  0  0  0  0  0  0  0  0
  -14.7808   -7.9445   -6.7311 C   0  0  0  0  0  0  0  0  0  0  0  0
  -14.3058   -6.8526   -7.6654 C   0  0  0  0  0  0  0  0  0  0  0  0
  -13.1293   -6.4668   -7.6497 O   0  0  0  0  0  0  0  0  0  0  0  0
  -15.8306   -8.1398   -6.8940 H   0  0  0  0  0  0  0  0  0  0  0  0
  -14.2238   -8.8522   -6.9102 H   0  0  0  0  0  0  0  0  0  0  0  0
  -15.0101   -6.3991   -8.3628 H   0  0  0  0  0  0  0  0  0  0  0  0
  1  2  1  0
  2  3  1  0
  3  4  1  0
  4  5  2  0
  5  6  1  0
  6  7  2  0
  7  8  1  0
  8  9  2  0
  9 10  1  0
 10 11  2  0
 11 12  1  0
 12 13  1  0
 13 14  1  0
 14 15  2  0
 14 16  1  0
 16 17  1  0
 17 18  1  0
 18 19  2  0
 19 20  1  0
 20 21  2  0
 21 22  1  0
 22 23  2  0
 23 24  1  0
 24 25  1  0
 12 26  2  0
  3  7  1  0
  8 26  1  0
 18 23  1  0
  1 27  1  0
  1 28  1  0
  1 29  1  0
  2 30  1  0
  2 31  1  0
  9 32  1  0
 11 33  1  0
 13 34  1  0
 16 35  1  0
 17 36  1  0
 17 37  1  0
 19 38  1  0
 20 39  1  0
 21 40  1  0
 22 41  1  0
 24 42  1  0
 24 43  1  0
 25 44  1  0
 26 45  1  0
 46 47  1  0
 46 49  1  0
 46 50  1  0
 47 48  2  0
 47 51  1  0
 10 46  1  0
M  END
>  <CHROM.1>  (4) 
65.54951943,17.31776661,-178.12150393,66.29358976,-86.42720101,92.94566280
-178.26443940,-14.94787201,-5.71806082,-1.84865519,-0.72733613,-0.06183766
0.91603111

>  <Name>  (4) 
design_18

>  <RI>  (4) 
39991000.000000

>  <Rbt.Current_Directory>  (4) 
/pylon5/mc5pksp/smaltr/gateway_workdirs/PROCESS_93251df5-8da2-4fa9-b874-71853b29d1ad

>  <Rbt.Executable>  (4) 
rbdock ($Id: //depot/dev/client3/rdock/2013.1/src/exe/rbdock.cxx#4 $)

>  <Rbt.Library>  (4) 
libRbt.so (2013.1, Build901 2013/11/27)

>  <Rbt.Parameter_File>  (4) 
/home/smaltr/software/rDock_2013.1_src//data/scripts/dock.prm

>  <Rbt.Receptor>  (4) 
/pylon5/mc5pksp/smaltr/gateway_workdirs/PROCESS_93251df5-8da2-4fa9-b874-71853b29d1ad/output/SnD-Target-Sep02/cavity/pocket_docking.prm

>  <SCORE>  (4) 
-23.387500

>  <SCORE.INTER>  (4) 
-21.667500

>  <SCORE.INTER.CONST>  (4) 
1

>  <SCORE.INTER.POLAR>  (4) 
-2.282600

>  <SCORE.INTER.REPUL>  (4) 
0.002201

>  <SCORE.INTER.ROT>  (4) 
6

>  <SCORE.INTER.VDW>  (4) 
-25.317700

>  <SCORE.INTER.norm>  (4) 
-0.833366

>  <SCORE.INTRA>  (4) 
-1.720030

>  <SCORE.INTRA.DIHEDRAL>  (4) 
-0.068457

>  <SCORE.INTRA.DIHEDRAL.0>  (4) 
6.271440

>  <SCORE.INTRA.POLAR>  (4) 
0

>  <SCORE.INTRA.POLAR.0>  (4) 
0

>  <SCORE.INTRA.REPUL>  (4) 
-0.010613

>  <SCORE.INTRA.REPUL.0>  (4) 
0.031068

>  <SCORE.INTRA.VDW>  (4) 
-1.632730

>  <SCORE.INTRA.VDW.0>  (4) 
-0.730908

>  <SCORE.INTRA.norm>  (4) 
-0.066155

>  <SCORE.RESTR>  (4) 
0

>  <SCORE.RESTR.CAVITY>  (4) 
0

>  <SCORE.RESTR.norm>  (4) 
0

>  <SCORE.SYSTEM>  (4) 
0

>  <SCORE.SYSTEM.CONST>  (4) 
0

>  <SCORE.SYSTEM.DIHEDRAL>  (4) 
0

>  <SCORE.SYSTEM.norm>  (4) 
0

>  <SCORE.heavy>  (4) 
26

>  <SCORE.norm>  (4) 
-0.899520

>  <SMILES>  (4) 
CCn1nnnc1-c1cccc(NC(=O)NCc2ccccc2CO)c1

>  <Cycle>  (4) 
228

>  <MolWeight>  (4) 
352.398000

>  <LogP>  (4) 
2.174000

>  <QED>  (4) 
0.630513

>  <SAS>  (4) 
2.224531

$$$$
design_18
     RDKit          3D

 51 53  0  0  0  0  0  0  0  0999 V2000
   -9.4244   -8.5935   -5.3102 C   0  0  0  0  0  0  0  0  0  0  0  0
  -10.1049   -7.2664   -5.0695 C   0  0  0  0  0  0  0  0  0  0  0  0
  -10.5540   -7.2160   -3.7111 N   0  0  0  0  0  0  0  0  0  0  0  0
   -9.7218   -7.2077   -2.6445 N   0  0  0  0  0  0  0  0  0  0  0  0
  -10.4021   -7.1926   -1.5317 N   0  0  0  0  0  0  0  0  0  0  0  0
  -11.6600   -7.1906   -1.8823 N   0  0  0  0  0  0  0  0  0  0  0  0
  -11.7854   -7.2043   -3.2571 C   0  0  0  0  0  0  0  0  0  0  0  0
  -13.0799   -7.2310   -3.8985 C   0  0  0  0  0  0  0  0  0  0  0  0
  -13.3628   -7.5964   -5.1726 C   0  0  0  0  0  0  0  0  0  0  0  0
  -14.6360   -7.6401   -5.6996 C   0  0  0  0  0  0  0  0  0  0  0  0
  -15.7031   -7.3081   -4.9450 C   0  0  0  0  0  0  0  0  0  0  0  0
  -15.4955   -6.9166   -3.6125 C   0  0  0  0  0  0  0  0  0  0  0  0
  -16.6525   -6.5828   -2.8829 N   0  0  0  0  0  0  0  0  0  0  0  0
  -16.6866   -6.1347   -1.5663 C   0  0  0  0  0  0  0  0  0  0  0  0
  -15.6939   -5.9695   -0.8522 O   0  0  0  0  0  0  0  0  0  0  0  0
  -17.9676   -5.8312   -0.9604 N   0  0  0  0  0  0  0  0  0  0  0  0
  -18.0501   -5.3702    0.3838 C   0  0  0  0  0  0  0  0  0  0  0  0
  -17.4800   -4.0548    0.6684 C   0  0  0  0  0  0  0  0  0  0  0  0
  -16.1829   -3.7677    0.9812 C   0  0  0  0  0  0  0  0  0  0  0  0
  -15.7903   -2.4592    1.2269 C   0  0  0  0  0  0  0  0  0  0  0  0
  -16.6679   -1.4227    1.1675 C   0  0  0  0  0  0  0  0  0  0  0  0
  -17.9708   -1.6952    0.8552 C   0  0  0  0  0  0  0  0  0  0  0  0
  -18.3710   -2.9802    0.6108 C   0  0  0  0  0  0  0  0  0  0  0  0
  -19.8066   -3.2343    0.2726 C   0  0  0  0  0  0  0  0  0  0  0  0
  -20.5477   -3.4058    1.4212 O   0  0  0  0  0  0  0  0  0  0  0  0
  -14.2099   -6.8876   -3.1288 C   0  0  0  0  0  0  0  0  0  0  0  0
   -8.4565   -8.6010   -4.8090 H   0  0  0  0  0  0  0  0  0  0  0  0
  -10.0444   -9.3976   -4.9138 H   0  0  0  0  0  0  0  0  0  0  0  0
   -9.2798   -8.7394   -6.3807 H   0  0  0  0  0  0  0  0  0  0  0  0
  -10.9547   -7.1594   -5.7437 H   0  0  0  0  0  0  0  0  0  0  0  0
   -9.4011   -6.4547   -5.2535 H   0  0  0  0  0  0  0  0  0  0  0  0
  -12.5316   -7.8730   -5.8212 H   0  0  0  0  0  0  0  0  0  0  0  0
  -14.7814   -7.9458   -6.7357 H   0  0  0  0  0  0  0  0  0  0  0  0
  -16.7095   -7.3430   -5.3622 H   0  0  0  0  0  0  0  0  0  0  0  0
  -17.5384   -6.6773   -3.3587 H   0  0  0  0  0  0  0  0  0  0  0  0
  -18.8137   -5.9484   -1.4994 H   0  0  0  0  0  0  0  0  0  0  0  0
  -17.4479   -6.0714    0.9616 H   0  0  0  0  0  0  0  0  0  0  0  0
  -19.1047   -5.3389    0.6576 H   0  0  0  0  0  0  0  0  0  0  0  0
  -15.4496   -4.5721    1.0385 H   0  0  0  0  0  0  0  0  0  0  0  0
  -14.7483   -2.2569    1.4746 H   0  0  0  0  0  0  0  0  0  0  0  0
  -18.6956   -0.8829    0.8006 H   0  0  0  0  0  0  0  0  0  0  0  0
  -19.8727   -4.1408   -0.3290 H   0  0  0  0  0  0  0  0  0  0  0  0
  -20.2003   -2.3853   -0.2863 H   0  0  0  0  0  0  0  0  0  0  0  0
  -20.6381   -2.5636    1.8730 H   0  0  0  0  0  0  0  0  0  0  0  0
  -14.0553   -6.5825   -2.0938 H   0  0  0  0  0  0  0  0  0  0  0  0
  -14.9481   -0.1544    1.9003 C   0  0  0  0  0  0  0  0  0  0  0  0
  -16.3415   -0.4014    1.3637 C   0  0  0  0  0  0  0  0  0  0  0  0
  -17.1164    0.5392    1.1442 O   0  0  0  0  0  0  0  0  0  0  0  0
  -15.0028    0.3455    2.8565 H   0  0  0  0  0  0  0  0  0  0  0  0
  -14.4283   -1.0930    2.0256 H   0  0  0  0  0  0  0  0  0  0  0  0
  -14.3916    0.4648    1.2124 H   0  0  0  0  0  0  0  0  0  0  0  0
  1  2  1  0
  2  3  1  0
  3  4  1  0
  4  5  2  0
  5  6  1  0
  6  7  2  0
  7  8  1  0
  8  9  2  0
  9 10  1  0
 10 11  2  0
 11 12  1  0
 12 13  1  0
 13 14  1  0
 14 15  2  0
 14 16  1  0
 16 17  1  0
 17 18  1  0
 18 19  2  0
 19 20  1  0
 20 21  2  0
 21 22  1  0
 22 23  2  0
 23 24  1  0
 24 25  1  0
 12 26  2  0
  3  7  1  0
  8 26  1  0
 18 23  1  0
  1 27  1  0
  1 28  1  0
  1 29  1  0
  2 30  1  0
  2 31  1  0
  9 32  1  0
 10 33  1  0
 11 34  1  0
 13 35  1  0
 16 36  1  0
 17 37  1  0
 17 38  1  0
 19 39  1  0
 20 40  1  0
 22 41  1  0
 24 42  1  0
 24 43  1  0
 25 44  1  0
 26 45  1  0
 46 47  1  0
 46 49  1  0
 46 50  1  0
 46 51  1  0
 47 48  2  0
 21 47  1  0
M  END
>  <CHROM.1>  (5) 
65.54951943,17.31776661,-178.12150393,66.29358976,-86.42720101,92.94566280
-178.26443940,-14.94787201,-5.71806082,-1.84865519,-0.72733613,-0.06183766
0.91603111

>  <Name>  (5) 
design_18

>  <RI>  (5) 
39991000.000000

>  <Rbt.Current_Directory>  (5) 
/pylon5/mc5pksp/smaltr/gateway_workdirs/PROCESS_93251df5-8da2-4fa9-b874-71853b29d1ad

>  <Rbt.Executable>  (5) 
rbdock ($Id: //depot/dev/client3/rdock/2013.1/src/exe/rbdock.cxx#4 $)

>  <Rbt.Library>  (5) 
libRbt.so (2013.1, Build901 2013/11/27)

>  <Rbt.Parameter_File>  (5) 
/home/smaltr/software/rDock_2013.1_src//data/scripts/dock.prm

>  <Rbt.Receptor>  (5) 
/pylon5/mc5pksp/smaltr/gateway_workdirs/PROCESS_93251df5-8da2-4fa9-b874-71853b29d1ad/output/SnD-Target-Sep02/cavity/pocket_docking.prm

>  <SCORE>  (5) 
-23.387500

>  <SCORE.INTER>  (5) 
-21.667500

>  <SCORE.INTER.CONST>  (5) 
1

>  <SCORE.INTER.POLAR>  (5) 
-2.282600

>  <SCORE.INTER.REPUL>  (5) 
0.002201

>  <SCORE.INTER.ROT>  (5) 
6

>  <SCORE.INTER.VDW>  (5) 
-25.317700

>  <SCORE.INTER.norm>  (5) 
-0.833366

>  <SCORE.INTRA>  (5) 
-1.720030

>  <SCORE.INTRA.DIHEDRAL>  (5) 
-0.068457

>  <SCORE.INTRA.DIHEDRAL.0>  (5) 
6.271440

>  <SCORE.INTRA.POLAR>  (5) 
0

>  <SCORE.INTRA.POLAR.0>  (5) 
0

>  <SCORE.INTRA.REPUL>  (5) 
-0.010613

>  <SCORE.INTRA.REPUL.0>  (5) 
0.031068

>  <SCORE.INTRA.VDW>  (5) 
-1.632730

>  <SCORE.INTRA.VDW.0>  (5) 
-0.730908

>  <SCORE.INTRA.norm>  (5) 
-0.066155

>  <SCORE.RESTR>  (5) 
0

>  <SCORE.RESTR.CAVITY>  (5) 
0

>  <SCORE.RESTR.norm>  (5) 
0

>  <SCORE.SYSTEM>  (5) 
0

>  <SCORE.SYSTEM.CONST>  (5) 
0

>  <SCORE.SYSTEM.DIHEDRAL>  (5) 
0

>  <SCORE.SYSTEM.norm>  (5) 
0

>  <SCORE.heavy>  (5) 
26

>  <SCORE.norm>  (5) 
-0.899520

>  <SMILES>  (5) 
CCn1nnnc1-c1cccc(NC(=O)NCc2ccccc2CO)c1

>  <Cycle>  (5) 
228

>  <MolWeight>  (5) 
352.398000

>  <LogP>  (5) 
2.174000

>  <QED>  (5) 
0.630513

>  <SAS>  (5) 
2.224531

$$$$
design_18
     RDKit          3D

 51 53  0  0  0  0  0  0  0  0999 V2000
   -9.4244   -8.5935   -5.3102 C   0  0  0  0  0  0  0  0  0  0  0  0
  -10.1049   -7.2664   -5.0695 C   0  0  0  0  0  0  0  0  0  0  0  0
  -10.5540   -7.2160   -3.7111 N   0  0  0  0  0  0  0  0  0  0  0  0
   -9.7218   -7.2077   -2.6445 N   0  0  0  0  0  0  0  0  0  0  0  0
  -10.4021   -7.1926   -1.5317 N   0  0  0  0  0  0  0  0  0  0  0  0
  -11.6600   -7.1906   -1.8823 N   0  0  0  0  0  0  0  0  0  0  0  0
  -11.7854   -7.2043   -3.2571 C   0  0  0  0  0  0  0  0  0  0  0  0
  -13.0799   -7.2310   -3.8985 C   0  0  0  0  0  0  0  0  0  0  0  0
  -13.3628   -7.5964   -5.1726 C   0  0  0  0  0  0  0  0  0  0  0  0
  -14.6360   -7.6401   -5.6996 C   0  0  0  0  0  0  0  0  0  0  0  0
  -15.7031   -7.3081   -4.9450 C   0  0  0  0  0  0  0  0  0  0  0  0
  -15.4955   -6.9166   -3.6125 C   0  0  0  0  0  0  0  0  0  0  0  0
  -16.6525   -6.5828   -2.8829 N   0  0  0  0  0  0  0  0  0  0  0  0
  -16.6866   -6.1347   -1.5663 C   0  0  0  0  0  0  0  0  0  0  0  0
  -15.6939   -5.9695   -0.8522 O   0  0  0  0  0  0  0  0  0  0  0  0
  -17.9676   -5.8312   -0.9604 N   0  0  0  0  0  0  0  0  0  0  0  0
  -18.0501   -5.3702    0.3838 C   0  0  0  0  0  0  0  0  0  0  0  0
  -17.4800   -4.0548    0.6684 C   0  0  0  0  0  0  0  0  0  0  0  0
  -16.1829   -3.7677    0.9812 C   0  0  0  0  0  0  0  0  0  0  0  0
  -15.7903   -2.4592    1.2269 C   0  0  0  0  0  0  0  0  0  0  0  0
  -16.6679   -1.4227    1.1675 C   0  0  0  0  0  0  0  0  0  0  0  0
  -17.9708   -1.6952    0.8552 C   0  0  0  0  0  0  0  0  0  0  0  0
  -18.3710   -2.9802    0.6108 C   0  0  0  0  0  0  0  0  0  0  0  0
  -19.8066   -3.2343    0.2726 C   0  0  0  0  0  0  0  0  0  0  0  0
  -20.5477   -3.4058    1.4212 O   0  0  0  0  0  0  0  0  0  0  0  0
  -14.2099   -6.8876   -3.1288 C   0  0  0  0  0  0  0  0  0  0  0  0
   -8.4565   -8.6010   -4.8090 H   0  0  0  0  0  0  0  0  0  0  0  0
  -10.0444   -9.3976   -4.9138 H   0  0  0  0  0  0  0  0  0  0  0  0
   -9.2798   -8.7394   -6.3807 H   0  0  0  0  0  0  0  0  0  0  0  0
  -10.9547   -7.1594   -5.7437 H   0  0  0  0  0  0  0  0  0  0  0  0
   -9.4011   -6.4547   -5.2535 H   0  0  0  0  0  0  0  0  0  0  0  0
  -12.5316   -7.8730   -5.8212 H   0  0  0  0  0  0  0  0  0  0  0  0
  -14.7814   -7.9458   -6.7357 H   0  0  0  0  0  0  0  0  0  0  0  0
  -16.7095   -7.3430   -5.3622 H   0  0  0  0  0  0  0  0  0  0  0  0
  -17.5384   -6.6773   -3.3587 H   0  0  0  0  0  0  0  0  0  0  0  0
  -18.8137   -5.9484   -1.4994 H   0  0  0  0  0  0  0  0  0  0  0  0
  -17.4479   -6.0714    0.9616 H   0  0  0  0  0  0  0  0  0  0  0  0
  -19.1047   -5.3389    0.6576 H   0  0  0  0  0  0  0  0  0  0  0  0
  -15.4496   -4.5721    1.0385 H   0  0  0  0  0  0  0  0  0  0  0  0
  -14.7483   -2.2569    1.4746 H   0  0  0  0  0  0  0  0  0  0  0  0
  -18.6956   -0.8829    0.8006 H   0  0  0  0  0  0  0  0  0  0  0  0
  -19.8727   -4.1408   -0.3290 H   0  0  0  0  0  0  0  0  0  0  0  0
  -20.2003   -2.3853   -0.2863 H   0  0  0  0  0  0  0  0  0  0  0  0
  -20.6381   -2.5636    1.8730 H   0  0  0  0  0  0  0  0  0  0  0  0
  -14.0553   -6.5825   -2.0938 H   0  0  0  0  0  0  0  0  0  0  0  0
  -16.3429   -0.4059    1.3628 C   0  0  0  0  0  0  0  0  0  0  0  0
  -17.1695    0.1975    2.4779 C   0  0  0  0  0  0  0  0  0  0  0  0
  -17.1875   -0.3125    3.6061 O   0  0  0  0  0  0  0  0  0  0  0  0
  -16.4572    0.1771    0.4607 H   0  0  0  0  0  0  0  0  0  0  0  0
  -15.2997   -0.4188    1.6416 H   0  0  0  0  0  0  0  0  0  0  0  0
  -17.7578    1.0946    2.2849 H   0  0  0  0  0  0  0  0  0  0  0  0
  1  2  1  0
  2  3  1  0
  3  4  1  0
  4  5  2  0
  5  6  1  0
  6  7  2  0
  7  8  1  0
  8  9  2  0
  9 10  1  0
 10 11  2  0
 11 12  1  0
 12 13  1  0
 13 14  1  0
 14 15  2  0
 14 16  1  0
 16 17  1  0
 17 18  1  0
 18 19  2  0
 19 20  1  0
 20 21  2  0
 21 22  1  0
 22 23  2  0
 23 24  1  0
 24 25  1  0
 12 26  2  0
  3  7  1  0
  8 26  1  0
 18 23  1  0
  1 27  1  0
  1 28  1  0
  1 29  1  0
  2 30  1  0
  2 31  1  0
  9 32  1  0
 10 33  1  0
 11 34  1  0
 13 35  1  0
 16 36  1  0
 17 37  1  0
 17 38  1  0
 19 39  1  0
 20 40  1  0
 22 41  1  0
 24 42  1  0
 24 43  1  0
 25 44  1  0
 26 45  1  0
 46 47  1  0
 46 49  1  0
 46 50  1  0
 47 48  2  0
 47 51  1  0
 21 46  1  0
M  END
>  <CHROM.1>  (6) 
65.54951943,17.31776661,-178.12150393,66.29358976,-86.42720101,92.94566280
-178.26443940,-14.94787201,-5.71806082,-1.84865519,-0.72733613,-0.06183766
0.91603111

>  <Name>  (6) 
design_18

>  <RI>  (6) 
39991000.000000

>  <Rbt.Current_Directory>  (6) 
/pylon5/mc5pksp/smaltr/gateway_workdirs/PROCESS_93251df5-8da2-4fa9-b874-71853b29d1ad

>  <Rbt.Executable>  (6) 
rbdock ($Id: //depot/dev/client3/rdock/2013.1/src/exe/rbdock.cxx#4 $)

>  <Rbt.Library>  (6) 
libRbt.so (2013.1, Build901 2013/11/27)

>  <Rbt.Parameter_File>  (6) 
/home/smaltr/software/rDock_2013.1_src//data/scripts/dock.prm

>  <Rbt.Receptor>  (6) 
/pylon5/mc5pksp/smaltr/gateway_workdirs/PROCESS_93251df5-8da2-4fa9-b874-71853b29d1ad/output/SnD-Target-Sep02/cavity/pocket_docking.prm

>  <SCORE>  (6) 
-23.387500

>  <SCORE.INTER>  (6) 
-21.667500

>  <SCORE.INTER.CONST>  (6) 
1

>  <SCORE.INTER.POLAR>  (6) 
-2.282600

>  <SCORE.INTER.REPUL>  (6) 
0.002201

>  <SCORE.INTER.ROT>  (6) 
6

>  <SCORE.INTER.VDW>  (6) 
-25.317700

>  <SCORE.INTER.norm>  (6) 
-0.833366

>  <SCORE.INTRA>  (6) 
-1.720030

>  <SCORE.INTRA.DIHEDRAL>  (6) 
-0.068457

>  <SCORE.INTRA.DIHEDRAL.0>  (6) 
6.271440

>  <SCORE.INTRA.POLAR>  (6) 
0

>  <SCORE.INTRA.POLAR.0>  (6) 
0

>  <SCORE.INTRA.REPUL>  (6) 
-0.010613

>  <SCORE.INTRA.REPUL.0>  (6) 
0.031068

>  <SCORE.INTRA.VDW>  (6) 
-1.632730

>  <SCORE.INTRA.VDW.0>  (6) 
-0.730908

>  <SCORE.INTRA.norm>  (6) 
-0.066155

>  <SCORE.RESTR>  (6) 
0

>  <SCORE.RESTR.CAVITY>  (6) 
0

>  <SCORE.RESTR.norm>  (6) 
0

>  <SCORE.SYSTEM>  (6) 
0

>  <SCORE.SYSTEM.CONST>  (6) 
0

>  <SCORE.SYSTEM.DIHEDRAL>  (6) 
0

>  <SCORE.SYSTEM.norm>  (6) 
0

>  <SCORE.heavy>  (6) 
26

>  <SCORE.norm>  (6) 
-0.899520

>  <SMILES>  (6) 
CCn1nnnc1-c1cccc(NC(=O)NCc2ccccc2CO)c1

>  <Cycle>  (6) 
228

>  <MolWeight>  (6) 
352.398000

>  <LogP>  (6) 
2.174000

>  <QED>  (6) 
0.630513

>  <SAS>  (6) 
2.224531

$$$$
design_18
     RDKit          3D

 51 53  0  0  0  0  0  0  0  0999 V2000
   -9.4244   -8.5935   -5.3102 C   0  0  0  0  0  0  0  0  0  0  0  0
  -10.1049   -7.2664   -5.0695 C   0  0  0  0  0  0  0  0  0  0  0  0
  -10.5540   -7.2160   -3.7111 N   0  0  0  0  0  0  0  0  0  0  0  0
   -9.7218   -7.2077   -2.6445 N   0  0  0  0  0  0  0  0  0  0  0  0
  -10.4021   -7.1926   -1.5317 N   0  0  0  0  0  0  0  0  0  0  0  0
  -11.6600   -7.1906   -1.8823 N   0  0  0  0  0  0  0  0  0  0  0  0
  -11.7854   -7.2043   -3.2571 C   0  0  0  0  0  0  0  0  0  0  0  0
  -13.0799   -7.2310   -3.8985 C   0  0  0  0  0  0  0  0  0  0  0  0
  -13.3628   -7.5964   -5.1726 C   0  0  0  0  0  0  0  0  0  0  0  0
  -14.6360   -7.6401   -5.6996 C   0  0  0  0  0  0  0  0  0  0  0  0
  -15.7031   -7.3081   -4.9450 C   0  0  0  0  0  0  0  0  0  0  0  0
  -15.4955   -6.9166   -3.6125 C   0  0  0  0  0  0  0  0  0  0  0  0
  -16.6525   -6.5828   -2.8829 N   0  0  0  0  0  0  0  0  0  0  0  0
  -16.6866   -6.1347   -1.5663 C   0  0  0  0  0  0  0  0  0  0  0  0
  -15.6939   -5.9695   -0.8522 O   0  0  0  0  0  0  0  0  0  0  0  0
  -17.9676   -5.8312   -0.9604 N   0  0  0  0  0  0  0  0  0  0  0  0
  -18.0501   -5.3702    0.3838 C   0  0  0  0  0  0  0  0  0  0  0  0
  -17.4800   -4.0548    0.6684 C   0  0  0  0  0  0  0  0  0  0  0  0
  -16.1829   -3.7677    0.9812 C   0  0  0  0  0  0  0  0  0  0  0  0
  -15.7903   -2.4592    1.2269 C   0  0  0  0  0  0  0  0  0  0  0  0
  -16.6679   -1.4227    1.1675 C   0  0  0  0  0  0  0  0  0  0  0  0
  -17.9708   -1.6952    0.8552 C   0  0  0  0  0  0  0  0  0  0  0  0
  -18.3710   -2.9802    0.6108 C   0  0  0  0  0  0  0  0  0  0  0  0
  -19.8066   -3.2343    0.2726 C   0  0  0  0  0  0  0  0  0  0  0  0
  -20.5477   -3.4058    1.4212 O   0  0  0  0  0  0  0  0  0  0  0  0
  -14.2099   -6.8876   -3.1288 C   0  0  0  0  0  0  0  0  0  0  0  0
   -8.4565   -8.6010   -4.8090 H   0  0  0  0  0  0  0  0  0  0  0  0
  -10.0444   -9.3976   -4.9138 H   0  0  0  0  0  0  0  0  0  0  0  0
   -9.2798   -8.7394   -6.3807 H   0  0  0  0  0  0  0  0  0  0  0  0
  -10.9547   -7.1594   -5.7437 H   0  0  0  0  0  0  0  0  0  0  0  0
   -9.4011   -6.4547   -5.2535 H   0  0  0  0  0  0  0  0  0  0  0  0
  -12.5316   -7.8730   -5.8212 H   0  0  0  0  0  0  0  0  0  0  0  0
  -14.7814   -7.9458   -6.7357 H   0  0  0  0  0  0  0  0  0  0  0  0
  -16.7095   -7.3430   -5.3622 H   0  0  0  0  0  0  0  0  0  0  0  0
  -17.5384   -6.6773   -3.3587 H   0  0  0  0  0  0  0  0  0  0  0  0
  -18.8137   -5.9484   -1.4994 H   0  0  0  0  0  0  0  0  0  0  0  0
  -17.4479   -6.0714    0.9616 H   0  0  0  0  0  0  0  0  0  0  0  0
  -19.1047   -5.3389    0.6576 H   0  0  0  0  0  0  0  0  0  0  0  0
  -15.4496   -4.5721    1.0385 H   0  0  0  0  0  0  0  0  0  0  0  0
  -16.3415   -0.4014    1.3637 H   0  0  0  0  0  0  0  0  0  0  0  0
  -18.6956   -0.8829    0.8006 H   0  0  0  0  0  0  0  0  0  0  0  0
  -19.8727   -4.1408   -0.3290 H   0  0  0  0  0  0  0  0  0  0  0  0
  -20.2003   -2.3853   -0.2863 H   0  0  0  0  0  0  0  0  0  0  0  0
  -20.6381   -2.5636    1.8730 H   0  0  0  0  0  0  0  0  0  0  0  0
  -14.0553   -6.5825   -2.0938 H   0  0  0  0  0  0  0  0  0  0  0  0
  -13.6709   -2.5345    0.4486 C   0  0  0  0  0  0  0  0  0  0  0  0
  -14.7483   -2.2569    1.4746 C   0  0  0  0  0  0  0  0  0  0  0  0
  -14.4640   -1.8034    2.5912 O   0  0  0  0  0  0  0  0  0  0  0  0
  -12.9693   -3.2594    0.8354 H   0  0  0  0  0  0  0  0  0  0  0  0
  -14.1136   -2.9247   -0.4562 H   0  0  0  0  0  0  0  0  0  0  0  0
  -13.1404   -1.6236    0.2141 H   0  0  0  0  0  0  0  0  0  0  0  0
  1  2  1  0
  2  3  1  0
  3  4  1  0
  4  5  2  0
  5  6  1  0
  6  7  2  0
  7  8  1  0
  8  9  2  0
  9 10  1  0
 10 11  2  0
 11 12  1  0
 12 13  1  0
 13 14  1  0
 14 15  2  0
 14 16  1  0
 16 17  1  0
 17 18  1  0
 18 19  2  0
 19 20  1  0
 20 21  2  0
 21 22  1  0
 22 23  2  0
 23 24  1  0
 24 25  1  0
 12 26  2  0
  3  7  1  0
  8 26  1  0
 18 23  1  0
  1 27  1  0
  1 28  1  0
  1 29  1  0
  2 30  1  0
  2 31  1  0
  9 32  1  0
 10 33  1  0
 11 34  1  0
 13 35  1  0
 16 36  1  0
 17 37  1  0
 17 38  1  0
 19 39  1  0
 21 40  1  0
 22 41  1  0
 24 42  1  0
 24 43  1  0
 25 44  1  0
 26 45  1  0
 46 47  1  0
 46 49  1  0
 46 50  1  0
 46 51  1  0
 47 48  2  0
 20 47  1  0
M  END
>  <CHROM.1>  (7) 
65.54951943,17.31776661,-178.12150393,66.29358976,-86.42720101,92.94566280
-178.26443940,-14.94787201,-5.71806082,-1.84865519,-0.72733613,-0.06183766
0.91603111

>  <Name>  (7) 
design_18

>  <RI>  (7) 
39991000.000000

>  <Rbt.Current_Directory>  (7) 
/pylon5/mc5pksp/smaltr/gateway_workdirs/PROCESS_93251df5-8da2-4fa9-b874-71853b29d1ad

>  <Rbt.Executable>  (7) 
rbdock ($Id: //depot/dev/client3/rdock/2013.1/src/exe/rbdock.cxx#4 $)

>  <Rbt.Library>  (7) 
libRbt.so (2013.1, Build901 2013/11/27)

>  <Rbt.Parameter_File>  (7) 
/home/smaltr/software/rDock_2013.1_src//data/scripts/dock.prm

>  <Rbt.Receptor>  (7) 
/pylon5/mc5pksp/smaltr/gateway_workdirs/PROCESS_93251df5-8da2-4fa9-b874-71853b29d1ad/output/SnD-Target-Sep02/cavity/pocket_docking.prm

>  <SCORE>  (7) 
-23.387500

>  <SCORE.INTER>  (7) 
-21.667500

>  <SCORE.INTER.CONST>  (7) 
1

>  <SCORE.INTER.POLAR>  (7) 
-2.282600

>  <SCORE.INTER.REPUL>  (7) 
0.002201

>  <SCORE.INTER.ROT>  (7) 
6

>  <SCORE.INTER.VDW>  (7) 
-25.317700

>  <SCORE.INTER.norm>  (7) 
-0.833366

>  <SCORE.INTRA>  (7) 
-1.720030

>  <SCORE.INTRA.DIHEDRAL>  (7) 
-0.068457

>  <SCORE.INTRA.DIHEDRAL.0>  (7) 
6.271440

>  <SCORE.INTRA.POLAR>  (7) 
0

>  <SCORE.INTRA.POLAR.0>  (7) 
0

>  <SCORE.INTRA.REPUL>  (7) 
-0.010613

>  <SCORE.INTRA.REPUL.0>  (7) 
0.031068

>  <SCORE.INTRA.VDW>  (7) 
-1.632730

>  <SCORE.INTRA.VDW.0>  (7) 
-0.730908

>  <SCORE.INTRA.norm>  (7) 
-0.066155

>  <SCORE.RESTR>  (7) 
0

>  <SCORE.RESTR.CAVITY>  (7) 
0

>  <SCORE.RESTR.norm>  (7) 
0

>  <SCORE.SYSTEM>  (7) 
0

>  <SCORE.SYSTEM.CONST>  (7) 
0

>  <SCORE.SYSTEM.DIHEDRAL>  (7) 
0

>  <SCORE.SYSTEM.norm>  (7) 
0

>  <SCORE.heavy>  (7) 
26

>  <SCORE.norm>  (7) 
-0.899520

>  <SMILES>  (7) 
CCn1nnnc1-c1cccc(NC(=O)NCc2ccccc2CO)c1

>  <Cycle>  (7) 
228

>  <MolWeight>  (7) 
352.398000

>  <LogP>  (7) 
2.174000

>  <QED>  (7) 
0.630513

>  <SAS>  (7) 
2.224531

$$$$
design_18
     RDKit          3D

 51 53  0  0  0  0  0  0  0  0999 V2000
   -9.4244   -8.5935   -5.3102 C   0  0  0  0  0  0  0  0  0  0  0  0
  -10.1049   -7.2664   -5.0695 C   0  0  0  0  0  0  0  0  0  0  0  0
  -10.5540   -7.2160   -3.7111 N   0  0  0  0  0  0  0  0  0  0  0  0
   -9.7218   -7.2077   -2.6445 N   0  0  0  0  0  0  0  0  0  0  0  0
  -10.4021   -7.1926   -1.5317 N   0  0  0  0  0  0  0  0  0  0  0  0
  -11.6600   -7.1906   -1.8823 N   0  0  0  0  0  0  0  0  0  0  0  0
  -11.7854   -7.2043   -3.2571 C   0  0  0  0  0  0  0  0  0  0  0  0
  -13.0799   -7.2310   -3.8985 C   0  0  0  0  0  0  0  0  0  0  0  0
  -13.3628   -7.5964   -5.1726 C   0  0  0  0  0  0  0  0  0  0  0  0
  -14.6360   -7.6401   -5.6996 C   0  0  0  0  0  0  0  0  0  0  0  0
  -15.7031   -7.3081   -4.9450 C   0  0  0  0  0  0  0  0  0  0  0  0
  -15.4955   -6.9166   -3.6125 C   0  0  0  0  0  0  0  0  0  0  0  0
  -16.6525   -6.5828   -2.8829 N   0  0  0  0  0  0  0  0  0  0  0  0
  -16.6866   -6.1347   -1.5663 C   0  0  0  0  0  0  0  0  0  0  0  0
  -15.6939   -5.9695   -0.8522 O   0  0  0  0  0  0  0  0  0  0  0  0
  -17.9676   -5.8312   -0.9604 N   0  0  0  0  0  0  0  0  0  0  0  0
  -18.0501   -5.3702    0.3838 C   0  0  0  0  0  0  0  0  0  0  0  0
  -17.4800   -4.0548    0.6684 C   0  0  0  0  0  0  0  0  0  0  0  0
  -16.1829   -3.7677    0.9812 C   0  0  0  0  0  0  0  0  0  0  0  0
  -15.7903   -2.4592    1.2269 C   0  0  0  0  0  0  0  0  0  0  0  0
  -16.6679   -1.4227    1.1675 C   0  0  0  0  0  0  0  0  0  0  0  0
  -17.9708   -1.6952    0.8552 C   0  0  0  0  0  0  0  0  0  0  0  0
  -18.3710   -2.9802    0.6108 C   0  0  0  0  0  0  0  0  0  0  0  0
  -19.8066   -3.2343    0.2726 C   0  0  0  0  0  0  0  0  0  0  0  0
  -20.5477   -3.4058    1.4212 O   0  0  0  0  0  0  0  0  0  0  0  0
  -14.2099   -6.8876   -3.1288 C   0  0  0  0  0  0  0  0  0  0  0  0
   -8.4565   -8.6010   -4.8090 H   0  0  0  0  0  0  0  0  0  0  0  0
  -10.0444   -9.3976   -4.9138 H   0  0  0  0  0  0  0  0  0  0  0  0
   -9.2798   -8.7394   -6.3807 H   0  0  0  0  0  0  0  0  0  0  0  0
  -10.9547   -7.1594   -5.7437 H   0  0  0  0  0  0  0  0  0  0  0  0
   -9.4011   -6.4547   -5.2535 H   0  0  0  0  0  0  0  0  0  0  0  0
  -12.5316   -7.8730   -5.8212 H   0  0  0  0  0  0  0  0  0  0  0  0
  -14.7814   -7.9458   -6.7357 H   0  0  0  0  0  0  0  0  0  0  0  0
  -16.7095   -7.3430   -5.3622 H   0  0  0  0  0  0  0  0  0  0  0  0
  -17.5384   -6.6773   -3.3587 H   0  0  0  0  0  0  0  0  0  0  0  0
  -18.8137   -5.9484   -1.4994 H   0  0  0  0  0  0  0  0  0  0  0  0
  -17.4479   -6.0714    0.9616 H   0  0  0  0  0  0  0  0  0  0  0  0
  -19.1047   -5.3389    0.6576 H   0  0  0  0  0  0  0  0  0  0  0  0
  -15.4496   -4.5721    1.0385 H   0  0  0  0  0  0  0  0  0  0  0  0
  -16.3415   -0.4014    1.3637 H   0  0  0  0  0  0  0  0  0  0  0  0
  -18.6956   -0.8829    0.8006 H   0  0  0  0  0  0  0  0  0  0  0  0
  -19.8727   -4.1408   -0.3290 H   0  0  0  0  0  0  0  0  0  0  0  0
  -20.2003   -2.3853   -0.2863 H   0  0  0  0  0  0  0  0  0  0  0  0
  -20.6381   -2.5636    1.8730 H   0  0  0  0  0  0  0  0  0  0  0  0
  -14.0553   -6.5825   -2.0938 H   0  0  0  0  0  0  0  0  0  0  0  0
  -14.7529   -2.2578    1.4735 C   0  0  0  0  0  0  0  0  0  0  0  0
  -14.6065   -2.0439    2.9646 C   0  0  0  0  0  0  0  0  0  0  0  0
  -14.9187   -2.9312    3.7699 O   0  0  0  0  0  0  0  0  0  0  0  0
  -14.4317   -1.3752    0.9400 H   0  0  0  0  0  0  0  0  0  0  0  0
  -14.1488   -3.0960    1.1594 H   0  0  0  0  0  0  0  0  0  0  0  0
  -14.2203   -1.0944    3.3352 H   0  0  0  0  0  0  0  0  0  0  0  0
  1  2  1  0
  2  3  1  0
  3  4  1  0
  4  5  2  0
  5  6  1  0
  6  7  2  0
  7  8  1  0
  8  9  2  0
  9 10  1  0
 10 11  2  0
 11 12  1  0
 12 13  1  0
 13 14  1  0
 14 15  2  0
 14 16  1  0
 16 17  1  0
 17 18  1  0
 18 19  2  0
 19 20  1  0
 20 21  2  0
 21 22  1  0
 22 23  2  0
 23 24  1  0
 24 25  1  0
 12 26  2  0
  3  7  1  0
  8 26  1  0
 18 23  1  0
  1 27  1  0
  1 28  1  0
  1 29  1  0
  2 30  1  0
  2 31  1  0
  9 32  1  0
 10 33  1  0
 11 34  1  0
 13 35  1  0
 16 36  1  0
 17 37  1  0
 17 38  1  0
 19 39  1  0
 21 40  1  0
 22 41  1  0
 24 42  1  0
 24 43  1  0
 25 44  1  0
 26 45  1  0
 46 47  1  0
 46 49  1  0
 46 50  1  0
 47 48  2  0
 47 51  1  0
 20 46  1  0
M  END
>  <CHROM.1>  (8) 
65.54951943,17.31776661,-178.12150393,66.29358976,-86.42720101,92.94566280
-178.26443940,-14.94787201,-5.71806082,-1.84865519,-0.72733613,-0.06183766
0.91603111

>  <Name>  (8) 
design_18

>  <RI>  (8) 
39991000.000000

>  <Rbt.Current_Directory>  (8) 
/pylon5/mc5pksp/smaltr/gateway_workdirs/PROCESS_93251df5-8da2-4fa9-b874-71853b29d1ad

>  <Rbt.Executable>  (8) 
rbdock ($Id: //depot/dev/client3/rdock/2013.1/src/exe/rbdock.cxx#4 $)

>  <Rbt.Library>  (8) 
libRbt.so (2013.1, Build901 2013/11/27)

>  <Rbt.Parameter_File>  (8) 
/home/smaltr/software/rDock_2013.1_src//data/scripts/dock.prm

>  <Rbt.Receptor>  (8) 
/pylon5/mc5pksp/smaltr/gateway_workdirs/PROCESS_93251df5-8da2-4fa9-b874-71853b29d1ad/output/SnD-Target-Sep02/cavity/pocket_docking.prm

>  <SCORE>  (8) 
-23.387500

>  <SCORE.INTER>  (8) 
-21.667500

>  <SCORE.INTER.CONST>  (8) 
1

>  <SCORE.INTER.POLAR>  (8) 
-2.282600

>  <SCORE.INTER.REPUL>  (8) 
0.002201

>  <SCORE.INTER.ROT>  (8) 
6

>  <SCORE.INTER.VDW>  (8) 
-25.317700

>  <SCORE.INTER.norm>  (8) 
-0.833366

>  <SCORE.INTRA>  (8) 
-1.720030

>  <SCORE.INTRA.DIHEDRAL>  (8) 
-0.068457

>  <SCORE.INTRA.DIHEDRAL.0>  (8) 
6.271440

>  <SCORE.INTRA.POLAR>  (8) 
0

>  <SCORE.INTRA.POLAR.0>  (8) 
0

>  <SCORE.INTRA.REPUL>  (8) 
-0.010613

>  <SCORE.INTRA.REPUL.0>  (8) 
0.031068

>  <SCORE.INTRA.VDW>  (8) 
-1.632730

>  <SCORE.INTRA.VDW.0>  (8) 
-0.730908

>  <SCORE.INTRA.norm>  (8) 
-0.066155

>  <SCORE.RESTR>  (8) 
0

>  <SCORE.RESTR.CAVITY>  (8) 
0

>  <SCORE.RESTR.norm>  (8) 
0

>  <SCORE.SYSTEM>  (8) 
0

>  <SCORE.SYSTEM.CONST>  (8) 
0

>  <SCORE.SYSTEM.DIHEDRAL>  (8) 
0

>  <SCORE.SYSTEM.norm>  (8) 
0

>  <SCORE.heavy>  (8) 
26

>  <SCORE.norm>  (8) 
-0.899520

>  <SMILES>  (8) 
CCn1nnnc1-c1cccc(NC(=O)NCc2ccccc2CO)c1

>  <Cycle>  (8) 
228

>  <MolWeight>  (8) 
352.398000

>  <LogP>  (8) 
2.174000

>  <QED>  (8) 
0.630513

>  <SAS>  (8) 
2.224531

$$$$
design_18
     RDKit          3D

 51 53  0  0  0  0  0  0  0  0999 V2000
   -9.4244   -8.5935   -5.3102 C   0  0  0  0  0  0  0  0  0  0  0  0
  -10.1049   -7.2664   -5.0695 C   0  0  0  0  0  0  0  0  0  0  0  0
  -10.5540   -7.2160   -3.7111 N   0  0  0  0  0  0  0  0  0  0  0  0
   -9.7218   -7.2077   -2.6445 N   0  0  0  0  0  0  0  0  0  0  0  0
  -10.4021   -7.1926   -1.5317 N   0  0  0  0  0  0  0  0  0  0  0  0
  -11.6600   -7.1906   -1.8823 N   0  0  0  0  0  0  0  0  0  0  0  0
  -11.7854   -7.2043   -3.2571 C   0  0  0  0  0  0  0  0  0  0  0  0
  -13.0799   -7.2310   -3.8985 C   0  0  0  0  0  0  0  0  0  0  0  0
  -13.3628   -7.5964   -5.1726 C   0  0  0  0  0  0  0  0  0  0  0  0
  -14.6360   -7.6401   -5.6996 C   0  0  0  0  0  0  0  0  0  0  0  0
  -15.7031   -7.3081   -4.9450 C   0  0  0  0  0  0  0  0  0  0  0  0
  -15.4955   -6.9166   -3.6125 C   0  0  0  0  0  0  0  0  0  0  0  0
  -16.6525   -6.5828   -2.8829 N   0  0  0  0  0  0  0  0  0  0  0  0
  -16.6866   -6.1347   -1.5663 C   0  0  0  0  0  0  0  0  0  0  0  0
  -15.6939   -5.9695   -0.8522 O   0  0  0  0  0  0  0  0  0  0  0  0
  -17.9676   -5.8312   -0.9604 N   0  0  0  0  0  0  0  0  0  0  0  0
  -18.0501   -5.3702    0.3838 C   0  0  0  0  0  0  0  0  0  0  0  0
  -17.4800   -4.0548    0.6684 C   0  0  0  0  0  0  0  0  0  0  0  0
  -16.1829   -3.7677    0.9812 C   0  0  0  0  0  0  0  0  0  0  0  0
  -15.7903   -2.4592    1.2269 C   0  0  0  0  0  0  0  0  0  0  0  0
  -16.6679   -1.4227    1.1675 C   0  0  0  0  0  0  0  0  0  0  0  0
  -17.9708   -1.6952    0.8552 C   0  0  0  0  0  0  0  0  0  0  0  0
  -18.3710   -2.9802    0.6108 C   0  0  0  0  0  0  0  0  0  0  0  0
  -19.8066   -3.2343    0.2726 C   0  0  0  0  0  0  0  0  0  0  0  0
  -20.5477   -3.4058    1.4212 O   0  0  0  0  0  0  0  0  0  0  0  0
  -14.2099   -6.8876   -3.1288 C   0  0  0  0  0  0  0  0  0  0  0  0
   -8.4565   -8.6010   -4.8090 H   0  0  0  0  0  0  0  0  0  0  0  0
  -10.0444   -9.3976   -4.9138 H   0  0  0  0  0  0  0  0  0  0  0  0
   -9.2798   -8.7394   -6.3807 H   0  0  0  0  0  0  0  0  0  0  0  0
  -10.9547   -7.1594   -5.7437 H   0  0  0  0  0  0  0  0  0  0  0  0
   -9.4011   -6.4547   -5.2535 H   0  0  0  0  0  0  0  0  0  0  0  0
  -14.7814   -7.9458   -6.7357 H   0  0  0  0  0  0  0  0  0  0  0  0
  -16.7095   -7.3430   -5.3622 H   0  0  0  0  0  0  0  0  0  0  0  0
  -17.5384   -6.6773   -3.3587 H   0  0  0  0  0  0  0  0  0  0  0  0
  -18.8137   -5.9484   -1.4994 H   0  0  0  0  0  0  0  0  0  0  0  0
  -17.4479   -6.0714    0.9616 H   0  0  0  0  0  0  0  0  0  0  0  0
  -19.1047   -5.3389    0.6576 H   0  0  0  0  0  0  0  0  0  0  0  0
  -15.4496   -4.5721    1.0385 H   0  0  0  0  0  0  0  0  0  0  0  0
  -14.7483   -2.2569    1.4746 H   0  0  0  0  0  0  0  0  0  0  0  0
  -16.3415   -0.4014    1.3637 H   0  0  0  0  0  0  0  0  0  0  0  0
  -18.6956   -0.8829    0.8006 H   0  0  0  0  0  0  0  0  0  0  0  0
  -19.8727   -4.1408   -0.3290 H   0  0  0  0  0  0  0  0  0  0  0  0
  -20.2003   -2.3853   -0.2863 H   0  0  0  0  0  0  0  0  0  0  0  0
  -20.6381   -2.5636    1.8730 H   0  0  0  0  0  0  0  0  0  0  0  0
  -14.0553   -6.5825   -2.0938 H   0  0  0  0  0  0  0  0  0  0  0  0
  -12.8134   -8.5393   -7.1506 C   0  0  0  0  0  0  0  0  0  0  0  0
  -12.5316   -7.8730   -5.8212 C   0  0  0  0  0  0  0  0  0  0  0  0
  -11.3711   -7.6373   -5.4592 O   0  0  0  0  0  0  0  0  0  0  0  0
  -12.3446   -9.5121   -7.1838 H   0  0  0  0  0  0  0  0  0  0  0  0
  -13.8783   -8.6595   -7.2856 H   0  0  0  0  0  0  0  0  0  0  0  0
  -12.4243   -7.9350   -7.9566 H   0  0  0  0  0  0  0  0  0  0  0  0
  1  2  1  0
  2  3  1  0
  3  4  1  0
  4  5  2  0
  5  6  1  0
  6  7  2  0
  7  8  1  0
  8  9  2  0
  9 10  1  0
 10 11  2  0
 11 12  1  0
 12 13  1  0
 13 14  1  0
 14 15  2  0
 14 16  1  0
 16 17  1  0
 17 18  1  0
 18 19  2  0
 19 20  1  0
 20 21  2  0
 21 22  1  0
 22 23  2  0
 23 24  1  0
 24 25  1  0
 12 26  2  0
  3  7  1  0
  8 26  1  0
 18 23  1  0
  1 27  1  0
  1 28  1  0
  1 29  1  0
  2 30  1  0
  2 31  1  0
 10 32  1  0
 11 33  1  0
 13 34  1  0
 16 35  1  0
 17 36  1  0
 17 37  1  0
 19 38  1  0
 20 39  1  0
 21 40  1  0
 22 41  1  0
 24 42  1  0
 24 43  1  0
 25 44  1  0
 26 45  1  0
 46 47  1  0
 46 49  1  0
 46 50  1  0
 46 51  1  0
 47 48  2  0
  9 47  1  0
M  END
>  <CHROM.1>  (9) 
65.54951943,17.31776661,-178.12150393,66.29358976,-86.42720101,92.94566280
-178.26443940,-14.94787201,-5.71806082,-1.84865519,-0.72733613,-0.06183766
0.91603111

>  <Name>  (9) 
design_18

>  <RI>  (9) 
39991000.000000

>  <Rbt.Current_Directory>  (9) 
/pylon5/mc5pksp/smaltr/gateway_workdirs/PROCESS_93251df5-8da2-4fa9-b874-71853b29d1ad

>  <Rbt.Executable>  (9) 
rbdock ($Id: //depot/dev/client3/rdock/2013.1/src/exe/rbdock.cxx#4 $)

>  <Rbt.Library>  (9) 
libRbt.so (2013.1, Build901 2013/11/27)

>  <Rbt.Parameter_File>  (9) 
/home/smaltr/software/rDock_2013.1_src//data/scripts/dock.prm

>  <Rbt.Receptor>  (9) 
/pylon5/mc5pksp/smaltr/gateway_workdirs/PROCESS_93251df5-8da2-4fa9-b874-71853b29d1ad/output/SnD-Target-Sep02/cavity/pocket_docking.prm

>  <SCORE>  (9) 
-23.387500

>  <SCORE.INTER>  (9) 
-21.667500

>  <SCORE.INTER.CONST>  (9) 
1

>  <SCORE.INTER.POLAR>  (9) 
-2.282600

>  <SCORE.INTER.REPUL>  (9) 
0.002201

>  <SCORE.INTER.ROT>  (9) 
6

>  <SCORE.INTER.VDW>  (9) 
-25.317700

>  <SCORE.INTER.norm>  (9) 
-0.833366

>  <SCORE.INTRA>  (9) 
-1.720030

>  <SCORE.INTRA.DIHEDRAL>  (9) 
-0.068457

>  <SCORE.INTRA.DIHEDRAL.0>  (9) 
6.271440

>  <SCORE.INTRA.POLAR>  (9) 
0

>  <SCORE.INTRA.POLAR.0>  (9) 
0

>  <SCORE.INTRA.REPUL>  (9) 
-0.010613

>  <SCORE.INTRA.REPUL.0>  (9) 
0.031068

>  <SCORE.INTRA.VDW>  (9) 
-1.632730

>  <SCORE.INTRA.VDW.0>  (9) 
-0.730908

>  <SCORE.INTRA.norm>  (9) 
-0.066155

>  <SCORE.RESTR>  (9) 
0

>  <SCORE.RESTR.CAVITY>  (9) 
0

>  <SCORE.RESTR.norm>  (9) 
0

>  <SCORE.SYSTEM>  (9) 
0

>  <SCORE.SYSTEM.CONST>  (9) 
0

>  <SCORE.SYSTEM.DIHEDRAL>  (9) 
0

>  <SCORE.SYSTEM.norm>  (9) 
0

>  <SCORE.heavy>  (9) 
26

>  <SCORE.norm>  (9) 
-0.899520

>  <SMILES>  (9) 
CCn1nnnc1-c1cccc(NC(=O)NCc2ccccc2CO)c1

>  <Cycle>  (9) 
228

>  <MolWeight>  (9) 
352.398000

>  <LogP>  (9) 
2.174000

>  <QED>  (9) 
0.630513

>  <SAS>  (9) 
2.224531

$$$$
design_18
     RDKit          3D

 51 53  0  0  0  0  0  0  0  0999 V2000
   -9.4244   -8.5935   -5.3102 C   0  0  0  0  0  0  0  0  0  0  0  0
  -10.1049   -7.2664   -5.0695 C   0  0  0  0  0  0  0  0  0  0  0  0
  -10.5540   -7.2160   -3.7111 N   0  0  0  0  0  0  0  0  0  0  0  0
   -9.7218   -7.2077   -2.6445 N   0  0  0  0  0  0  0  0  0  0  0  0
  -10.4021   -7.1926   -1.5317 N   0  0  0  0  0  0  0  0  0  0  0  0
  -11.6600   -7.1906   -1.8823 N   0  0  0  0  0  0  0  0  0  0  0  0
  -11.7854   -7.2043   -3.2571 C   0  0  0  0  0  0  0  0  0  0  0  0
  -13.0799   -7.2310   -3.8985 C   0  0  0  0  0  0  0  0  0  0  0  0
  -13.3628   -7.5964   -5.1726 C   0  0  0  0  0  0  0  0  0  0  0  0
  -14.6360   -7.6401   -5.6996 C   0  0  0  0  0  0  0  0  0  0  0  0
  -15.7031   -7.3081   -4.9450 C   0  0  0  0  0  0  0  0  0  0  0  0
  -15.4955   -6.9166   -3.6125 C   0  0  0  0  0  0  0  0  0  0  0  0
  -16.6525   -6.5828   -2.8829 N   0  0  0  0  0  0  0  0  0  0  0  0
  -16.6866   -6.1347   -1.5663 C   0  0  0  0  0  0  0  0  0  0  0  0
  -15.6939   -5.9695   -0.8522 O   0  0  0  0  0  0  0  0  0  0  0  0
  -17.9676   -5.8312   -0.9604 N   0  0  0  0  0  0  0  0  0  0  0  0
  -18.0501   -5.3702    0.3838 C   0  0  0  0  0  0  0  0  0  0  0  0
  -17.4800   -4.0548    0.6684 C   0  0  0  0  0  0  0  0  0  0  0  0
  -16.1829   -3.7677    0.9812 C   0  0  0  0  0  0  0  0  0  0  0  0
  -15.7903   -2.4592    1.2269 C   0  0  0  0  0  0  0  0  0  0  0  0
  -16.6679   -1.4227    1.1675 C   0  0  0  0  0  0  0  0  0  0  0  0
  -17.9708   -1.6952    0.8552 C   0  0  0  0  0  0  0  0  0  0  0  0
  -18.3710   -2.9802    0.6108 C   0  0  0  0  0  0  0  0  0  0  0  0
  -19.8066   -3.2343    0.2726 C   0  0  0  0  0  0  0  0  0  0  0  0
  -20.5477   -3.4058    1.4212 O   0  0  0  0  0  0  0  0  0  0  0  0
  -14.2099   -6.8876   -3.1288 C   0  0  0  0  0  0  0  0  0  0  0  0
   -8.4565   -8.6010   -4.8090 H   0  0  0  0  0  0  0  0  0  0  0  0
  -10.0444   -9.3976   -4.9138 H   0  0  0  0  0  0  0  0  0  0  0  0
   -9.2798   -8.7394   -6.3807 H   0  0  0  0  0  0  0  0  0  0  0  0
  -10.9547   -7.1594   -5.7437 H   0  0  0  0  0  0  0  0  0  0  0  0
   -9.4011   -6.4547   -5.2535 H   0  0  0  0  0  0  0  0  0  0  0  0
  -14.7814   -7.9458   -6.7357 H   0  0  0  0  0  0  0  0  0  0  0  0
  -16.7095   -7.3430   -5.3622 H   0  0  0  0  0  0  0  0  0  0  0  0
  -17.5384   -6.6773   -3.3587 H   0  0  0  0  0  0  0  0  0  0  0  0
  -18.8137   -5.9484   -1.4994 H   0  0  0  0  0  0  0  0  0  0  0  0
  -17.4479   -6.0714    0.9616 H   0  0  0  0  0  0  0  0  0  0  0  0
  -19.1047   -5.3389    0.6576 H   0  0  0  0  0  0  0  0  0  0  0  0
  -15.4496   -4.5721    1.0385 H   0  0  0  0  0  0  0  0  0  0  0  0
  -14.7483   -2.2569    1.4746 H   0  0  0  0  0  0  0  0  0  0  0  0
  -16.3415   -0.4014    1.3637 H   0  0  0  0  0  0  0  0  0  0  0  0
  -18.6956   -0.8829    0.8006 H   0  0  0  0  0  0  0  0  0  0  0  0
  -19.8727   -4.1408   -0.3290 H   0  0  0  0  0  0  0  0  0  0  0  0
  -20.2003   -2.3853   -0.2863 H   0  0  0  0  0  0  0  0  0  0  0  0
  -20.6381   -2.5636    1.8730 H   0  0  0  0  0  0  0  0  0  0  0  0
  -14.0553   -6.5825   -2.0938 H   0  0  0  0  0  0  0  0  0  0  0  0
  -12.5353   -7.8718   -5.8183 C   0  0  0  0  0  0  0  0  0  0  0  0
  -11.2203   -7.6107   -5.1160 C   0  0  0  0  0  0  0  0  0  0  0  0
  -10.9437   -8.1759   -4.0496 O   0  0  0  0  0  0  0  0  0  0  0  0
  -12.5915   -7.2894   -6.7264 H   0  0  0  0  0  0  0  0  0  0  0  0
  -12.6191   -8.9190   -6.0683 H   0  0  0  0  0  0  0  0  0  0  0  0
  -10.5060   -6.9146   -5.5555 H   0  0  0  0  0  0  0  0  0  0  0  0
  1  2  1  0
  2  3  1  0
  3  4  1  0
  4  5  2  0
  5  6  1  0
  6  7  2  0
  7  8  1  0
  8  9  2  0
  9 10  1  0
 10 11  2  0
 11 12  1  0
 12 13  1  0
 13 14  1  0
 14 15  2  0
 14 16  1  0
 16 17  1  0
 17 18  1  0
 18 19  2  0
 19 20  1  0
 20 21  2  0
 21 22  1  0
 22 23  2  0
 23 24  1  0
 24 25  1  0
 12 26  2  0
  3  7  1  0
  8 26  1  0
 18 23  1  0
  1 27  1  0
  1 28  1  0
  1 29  1  0
  2 30  1  0
  2 31  1  0
 10 32  1  0
 11 33  1  0
 13 34  1  0
 16 35  1  0
 17 36  1  0
 17 37  1  0
 19 38  1  0
 20 39  1  0
 21 40  1  0
 22 41  1  0
 24 42  1  0
 24 43  1  0
 25 44  1  0
 26 45  1  0
 46 47  1  0
 46 49  1  0
 46 50  1  0
 47 48  2  0
 47 51  1  0
  9 46  1  0
M  END
>  <CHROM.1>  (10) 
65.54951943,17.31776661,-178.12150393,66.29358976,-86.42720101,92.94566280
-178.26443940,-14.94787201,-5.71806082,-1.84865519,-0.72733613,-0.06183766
0.91603111

>  <Name>  (10) 
design_18

>  <RI>  (10) 
39991000.000000

>  <Rbt.Current_Directory>  (10) 
/pylon5/mc5pksp/smaltr/gateway_workdirs/PROCESS_93251df5-8da2-4fa9-b874-71853b29d1ad

>  <Rbt.Executable>  (10) 
rbdock ($Id: //depot/dev/client3/rdock/2013.1/src/exe/rbdock.cxx#4 $)

>  <Rbt.Library>  (10) 
libRbt.so (2013.1, Build901 2013/11/27)

>  <Rbt.Parameter_File>  (10) 
/home/smaltr/software/rDock_2013.1_src//data/scripts/dock.prm

>  <Rbt.Receptor>  (10) 
/pylon5/mc5pksp/smaltr/gateway_workdirs/PROCESS_93251df5-8da2-4fa9-b874-71853b29d1ad/output/SnD-Target-Sep02/cavity/pocket_docking.prm

>  <SCORE>  (10) 
-23.387500

>  <SCORE.INTER>  (10) 
-21.667500

>  <SCORE.INTER.CONST>  (10) 
1

>  <SCORE.INTER.POLAR>  (10) 
-2.282600

>  <SCORE.INTER.REPUL>  (10) 
0.002201

>  <SCORE.INTER.ROT>  (10) 
6

>  <SCORE.INTER.VDW>  (10) 
-25.317700

>  <SCORE.INTER.norm>  (10) 
-0.833366

>  <SCORE.INTRA>  (10) 
-1.720030

>  <SCORE.INTRA.DIHEDRAL>  (10) 
-0.068457

>  <SCORE.INTRA.DIHEDRAL.0>  (10) 
6.271440

>  <SCORE.INTRA.POLAR>  (10) 
0

>  <SCORE.INTRA.POLAR.0>  (10) 
0

>  <SCORE.INTRA.REPUL>  (10) 
-0.010613

>  <SCORE.INTRA.REPUL.0>  (10) 
0.031068

>  <SCORE.INTRA.VDW>  (10) 
-1.632730

>  <SCORE.INTRA.VDW.0>  (10) 
-0.730908

>  <SCORE.INTRA.norm>  (10) 
-0.066155

>  <SCORE.RESTR>  (10) 
0

>  <SCORE.RESTR.CAVITY>  (10) 
0

>  <SCORE.RESTR.norm>  (10) 
0

>  <SCORE.SYSTEM>  (10) 
0

>  <SCORE.SYSTEM.CONST>  (10) 
0

>  <SCORE.SYSTEM.DIHEDRAL>  (10) 
0

>  <SCORE.SYSTEM.norm>  (10) 
0

>  <SCORE.heavy>  (10) 
26

>  <SCORE.norm>  (10) 
-0.899520

>  <SMILES>  (10) 
CCn1nnnc1-c1cccc(NC(=O)NCc2ccccc2CO)c1

>  <Cycle>  (10) 
228

>  <MolWeight>  (10) 
352.398000

>  <LogP>  (10) 
2.174000

>  <QED>  (10) 
0.630513

>  <SAS>  (10) 
2.224531

$$$$
design_18
     RDKit          3D

 51 53  0  0  0  0  0  0  0  0999 V2000
   -9.4244   -8.5935   -5.3102 C   0  0  0  0  0  0  0  0  0  0  0  0
  -10.1049   -7.2664   -5.0695 C   0  0  0  0  0  0  0  0  0  0  0  0
  -10.5540   -7.2160   -3.7111 N   0  0  0  0  0  0  0  0  0  0  0  0
   -9.7218   -7.2077   -2.6445 N   0  0  0  0  0  0  0  0  0  0  0  0
  -10.4021   -7.1926   -1.5317 N   0  0  0  0  0  0  0  0  0  0  0  0
  -11.6600   -7.1906   -1.8823 N   0  0  0  0  0  0  0  0  0  0  0  0
  -11.7854   -7.2043   -3.2571 C   0  0  0  0  0  0  0  0  0  0  0  0
  -13.0799   -7.2310   -3.8985 C   0  0  0  0  0  0  0  0  0  0  0  0
  -13.3628   -7.5964   -5.1726 C   0  0  0  0  0  0  0  0  0  0  0  0
  -14.6360   -7.6401   -5.6996 C   0  0  0  0  0  0  0  0  0  0  0  0
  -15.7031   -7.3081   -4.9450 C   0  0  0  0  0  0  0  0  0  0  0  0
  -15.4955   -6.9166   -3.6125 C   0  0  0  0  0  0  0  0  0  0  0  0
  -16.6525   -6.5828   -2.8829 N   0  0  0  0  0  0  0  0  0  0  0  0
  -16.6866   -6.1347   -1.5663 C   0  0  0  0  0  0  0  0  0  0  0  0
  -15.6939   -5.9695   -0.8522 O   0  0  0  0  0  0  0  0  0  0  0  0
  -17.9676   -5.8312   -0.9604 N   0  0  0  0  0  0  0  0  0  0  0  0
  -18.0501   -5.3702    0.3838 C   0  0  0  0  0  0  0  0  0  0  0  0
  -17.4800   -4.0548    0.6684 C   0  0  0  0  0  0  0  0  0  0  0  0
  -16.1829   -3.7677    0.9812 C   0  0  0  0  0  0  0  0  0  0  0  0
  -15.7903   -2.4592    1.2269 C   0  0  0  0  0  0  0  0  0  0  0  0
  -16.6679   -1.4227    1.1675 C   0  0  0  0  0  0  0  0  0  0  0  0
  -17.9708   -1.6952    0.8552 C   0  0  0  0  0  0  0  0  0  0  0  0
  -18.3710   -2.9802    0.6108 C   0  0  0  0  0  0  0  0  0  0  0  0
  -19.8066   -3.2343    0.2726 C   0  0  0  0  0  0  0  0  0  0  0  0
  -20.5477   -3.4058    1.4212 O   0  0  0  0  0  0  0  0  0  0  0  0
  -14.2099   -6.8876   -3.1288 C   0  0  0  0  0  0  0  0  0  0  0  0
   -8.4565   -8.6010   -4.8090 H   0  0  0  0  0  0  0  0  0  0  0  0
  -10.0444   -9.3976   -4.9138 H   0  0  0  0  0  0  0  0  0  0  0  0
   -9.2798   -8.7394   -6.3807 H   0  0  0  0  0  0  0  0  0  0  0  0
  -10.9547   -7.1594   -5.7437 H   0  0  0  0  0  0  0  0  0  0  0  0
   -9.4011   -6.4547   -5.2535 H   0  0  0  0  0  0  0  0  0  0  0  0
  -12.5316   -7.8730   -5.8212 H   0  0  0  0  0  0  0  0  0  0  0  0
  -14.7814   -7.9458   -6.7357 H   0  0  0  0  0  0  0  0  0  0  0  0
  -17.5384   -6.6773   -3.3587 H   0  0  0  0  0  0  0  0  0  0  0  0
  -18.8137   -5.9484   -1.4994 H   0  0  0  0  0  0  0  0  0  0  0  0
  -17.4479   -6.0714    0.9616 H   0  0  0  0  0  0  0  0  0  0  0  0
  -19.1047   -5.3389    0.6576 H   0  0  0  0  0  0  0  0  0  0  0  0
  -15.4496   -4.5721    1.0385 H   0  0  0  0  0  0  0  0  0  0  0  0
  -14.7483   -2.2569    1.4746 H   0  0  0  0  0  0  0  0  0  0  0  0
  -16.3415   -0.4014    1.3637 H   0  0  0  0  0  0  0  0  0  0  0  0
  -18.6956   -0.8829    0.8006 H   0  0  0  0  0  0  0  0  0  0  0  0
  -19.8727   -4.1408   -0.3290 H   0  0  0  0  0  0  0  0  0  0  0  0
  -20.2003   -2.3853   -0.2863 H   0  0  0  0  0  0  0  0  0  0  0  0
  -20.6381   -2.5636    1.8730 H   0  0  0  0  0  0  0  0  0  0  0  0
  -14.0553   -6.5825   -2.0938 H   0  0  0  0  0  0  0  0  0  0  0  0
  -17.8647   -7.7779   -4.4864 C   0  0  0  0  0  0  0  0  0  0  0  0
  -16.7095   -7.3430   -5.3622 C   0  0  0  0  0  0  0  0  0  0  0  0
  -16.8903   -7.0262   -6.5455 O   0  0  0  0  0  0  0  0  0  0  0  0
  -18.3367   -8.6550   -4.9049 H   0  0  0  0  0  0  0  0  0  0  0  0
  -17.5084   -8.0124   -3.4940 H   0  0  0  0  0  0  0  0  0  0  0  0
  -18.5952   -6.9855   -4.4180 H   0  0  0  0  0  0  0  0  0  0  0  0
  1  2  1  0
  2  3  1  0
  3  4  1  0
  4  5  2  0
  5  6  1  0
  6  7  2  0
  7  8  1  0
  8  9  2  0
  9 10  1  0
 10 11  2  0
 11 12  1  0
 12 13  1  0
 13 14  1  0
 14 15  2  0
 14 16  1  0
 16 17  1  0
 17 18  1  0
 18 19  2  0
 19 20  1  0
 20 21  2  0
 21 22  1  0
 22 23  2  0
 23 24  1  0
 24 25  1  0
 12 26  2  0
  3  7  1  0
  8 26  1  0
 18 23  1  0
  1 27  1  0
  1 28  1  0
  1 29  1  0
  2 30  1  0
  2 31  1  0
  9 32  1  0
 10 33  1  0
 13 34  1  0
 16 35  1  0
 17 36  1  0
 17 37  1  0
 19 38  1  0
 20 39  1  0
 21 40  1  0
 22 41  1  0
 24 42  1  0
 24 43  1  0
 25 44  1  0
 26 45  1  0
 46 47  1  0
 46 49  1  0
 46 50  1  0
 46 51  1  0
 47 48  2  0
 11 47  1  0
M  END
>  <CHROM.1>  (11) 
65.54951943,17.31776661,-178.12150393,66.29358976,-86.42720101,92.94566280
-178.26443940,-14.94787201,-5.71806082,-1.84865519,-0.72733613,-0.06183766
0.91603111

>  <Name>  (11) 
design_18

>  <RI>  (11) 
39991000.000000

>  <Rbt.Current_Directory>  (11) 
/pylon5/mc5pksp/smaltr/gateway_workdirs/PROCESS_93251df5-8da2-4fa9-b874-71853b29d1ad

>  <Rbt.Executable>  (11) 
rbdock ($Id: //depot/dev/client3/rdock/2013.1/src/exe/rbdock.cxx#4 $)

>  <Rbt.Library>  (11) 
libRbt.so (2013.1, Build901 2013/11/27)

>  <Rbt.Parameter_File>  (11) 
/home/smaltr/software/rDock_2013.1_src//data/scripts/dock.prm

>  <Rbt.Receptor>  (11) 
/pylon5/mc5pksp/smaltr/gateway_workdirs/PROCESS_93251df5-8da2-4fa9-b874-71853b29d1ad/output/SnD-Target-Sep02/cavity/pocket_docking.prm

>  <SCORE>  (11) 
-23.387500

>  <SCORE.INTER>  (11) 
-21.667500

>  <SCORE.INTER.CONST>  (11) 
1

>  <SCORE.INTER.POLAR>  (11) 
-2.282600

>  <SCORE.INTER.REPUL>  (11) 
0.002201

>  <SCORE.INTER.ROT>  (11) 
6

>  <SCORE.INTER.VDW>  (11) 
-25.317700

>  <SCORE.INTER.norm>  (11) 
-0.833366

>  <SCORE.INTRA>  (11) 
-1.720030

>  <SCORE.INTRA.DIHEDRAL>  (11) 
-0.068457

>  <SCORE.INTRA.DIHEDRAL.0>  (11) 
6.271440

>  <SCORE.INTRA.POLAR>  (11) 
0

>  <SCORE.INTRA.POLAR.0>  (11) 
0

>  <SCORE.INTRA.REPUL>  (11) 
-0.010613

>  <SCORE.INTRA.REPUL.0>  (11) 
0.031068

>  <SCORE.INTRA.VDW>  (11) 
-1.632730

>  <SCORE.INTRA.VDW.0>  (11) 
-0.730908

>  <SCORE.INTRA.norm>  (11) 
-0.066155

>  <SCORE.RESTR>  (11) 
0

>  <SCORE.RESTR.CAVITY>  (11) 
0

>  <SCORE.RESTR.norm>  (11) 
0

>  <SCORE.SYSTEM>  (11) 
0

>  <SCORE.SYSTEM.CONST>  (11) 
0

>  <SCORE.SYSTEM.DIHEDRAL>  (11) 
0

>  <SCORE.SYSTEM.norm>  (11) 
0

>  <SCORE.heavy>  (11) 
26

>  <SCORE.norm>  (11) 
-0.899520

>  <SMILES>  (11) 
CCn1nnnc1-c1cccc(NC(=O)NCc2ccccc2CO)c1

>  <Cycle>  (11) 
228

>  <MolWeight>  (11) 
352.398000

>  <LogP>  (11) 
2.174000

>  <QED>  (11) 
0.630513

>  <SAS>  (11) 
2.224531

$$$$
design_18
     RDKit          3D

 51 53  0  0  0  0  0  0  0  0999 V2000
   -9.4244   -8.5935   -5.3102 C   0  0  0  0  0  0  0  0  0  0  0  0
  -10.1049   -7.2664   -5.0695 C   0  0  0  0  0  0  0  0  0  0  0  0
  -10.5540   -7.2160   -3.7111 N   0  0  0  0  0  0  0  0  0  0  0  0
   -9.7218   -7.2077   -2.6445 N   0  0  0  0  0  0  0  0  0  0  0  0
  -10.4021   -7.1926   -1.5317 N   0  0  0  0  0  0  0  0  0  0  0  0
  -11.6600   -7.1906   -1.8823 N   0  0  0  0  0  0  0  0  0  0  0  0
  -11.7854   -7.2043   -3.2571 C   0  0  0  0  0  0  0  0  0  0  0  0
  -13.0799   -7.2310   -3.8985 C   0  0  0  0  0  0  0  0  0  0  0  0
  -13.3628   -7.5964   -5.1726 C   0  0  0  0  0  0  0  0  0  0  0  0
  -14.6360   -7.6401   -5.6996 C   0  0  0  0  0  0  0  0  0  0  0  0
  -15.7031   -7.3081   -4.9450 C   0  0  0  0  0  0  0  0  0  0  0  0
  -15.4955   -6.9166   -3.6125 C   0  0  0  0  0  0  0  0  0  0  0  0
  -16.6525   -6.5828   -2.8829 N   0  0  0  0  0  0  0  0  0  0  0  0
  -16.6866   -6.1347   -1.5663 C   0  0  0  0  0  0  0  0  0  0  0  0
  -15.6939   -5.9695   -0.8522 O   0  0  0  0  0  0  0  0  0  0  0  0
  -17.9676   -5.8312   -0.9604 N   0  0  0  0  0  0  0  0  0  0  0  0
  -18.0501   -5.3702    0.3838 C   0  0  0  0  0  0  0  0  0  0  0  0
  -17.4800   -4.0548    0.6684 C   0  0  0  0  0  0  0  0  0  0  0  0
  -16.1829   -3.7677    0.9812 C   0  0  0  0  0  0  0  0  0  0  0  0
  -15.7903   -2.4592    1.2269 C   0  0  0  0  0  0  0  0  0  0  0  0
  -16.6679   -1.4227    1.1675 C   0  0  0  0  0  0  0  0  0  0  0  0
  -17.9708   -1.6952    0.8552 C   0  0  0  0  0  0  0  0  0  0  0  0
  -18.3710   -2.9802    0.6108 C   0  0  0  0  0  0  0  0  0  0  0  0
  -19.8066   -3.2343    0.2726 C   0  0  0  0  0  0  0  0  0  0  0  0
  -20.5477   -3.4058    1.4212 O   0  0  0  0  0  0  0  0  0  0  0  0
  -14.2099   -6.8876   -3.1288 C   0  0  0  0  0  0  0  0  0  0  0  0
   -8.4565   -8.6010   -4.8090 H   0  0  0  0  0  0  0  0  0  0  0  0
  -10.0444   -9.3976   -4.9138 H   0  0  0  0  0  0  0  0  0  0  0  0
   -9.2798   -8.7394   -6.3807 H   0  0  0  0  0  0  0  0  0  0  0  0
  -10.9547   -7.1594   -5.7437 H   0  0  0  0  0  0  0  0  0  0  0  0
   -9.4011   -6.4547   -5.2535 H   0  0  0  0  0  0  0  0  0  0  0  0
  -12.5316   -7.8730   -5.8212 H   0  0  0  0  0  0  0  0  0  0  0  0
  -14.7814   -7.9458   -6.7357 H   0  0  0  0  0  0  0  0  0  0  0  0
  -17.5384   -6.6773   -3.3587 H   0  0  0  0  0  0  0  0  0  0  0  0
  -18.8137   -5.9484   -1.4994 H   0  0  0  0  0  0  0  0  0  0  0  0
  -17.4479   -6.0714    0.9616 H   0  0  0  0  0  0  0  0  0  0  0  0
  -19.1047   -5.3389    0.6576 H   0  0  0  0  0  0  0  0  0  0  0  0
  -15.4496   -4.5721    1.0385 H   0  0  0  0  0  0  0  0  0  0  0  0
  -14.7483   -2.2569    1.4746 H   0  0  0  0  0  0  0  0  0  0  0  0
  -16.3415   -0.4014    1.3637 H   0  0  0  0  0  0  0  0  0  0  0  0
  -18.6956   -0.8829    0.8006 H   0  0  0  0  0  0  0  0  0  0  0  0
  -19.8727   -4.1408   -0.3290 H   0  0  0  0  0  0  0  0  0  0  0  0
  -20.2003   -2.3853   -0.2863 H   0  0  0  0  0  0  0  0  0  0  0  0
  -20.6381   -2.5636    1.8730 H   0  0  0  0  0  0  0  0  0  0  0  0
  -14.0553   -6.5825   -2.0938 H   0  0  0  0  0  0  0  0  0  0  0  0
  -16.7051   -7.3428   -5.3604 C   0  0  0  0  0  0  0  0  0  0  0  0
  -17.7269   -7.1013   -4.2704 C   0  0  0  0  0  0  0  0  0  0  0  0
  -17.7294   -6.0472   -3.6207 O   0  0  0  0  0  0  0  0  0  0  0  0
  -16.8644   -8.3128   -5.8083 H   0  0  0  0  0  0  0  0  0  0  0  0
  -16.7941   -6.5852   -6.1248 H   0  0  0  0  0  0  0  0  0  0  0  0
  -18.4720   -7.8669   -4.0540 H   0  0  0  0  0  0  0  0  0  0  0  0
  1  2  1  0
  2  3  1  0
  3  4  1  0
  4  5  2  0
  5  6  1  0
  6  7  2  0
  7  8  1  0
  8  9  2  0
  9 10  1  0
 10 11  2  0
 11 12  1  0
 12 13  1  0
 13 14  1  0
 14 15  2  0
 14 16  1  0
 16 17  1  0
 17 18  1  0
 18 19  2  0
 19 20  1  0
 20 21  2  0
 21 22  1  0
 22 23  2  0
 23 24  1  0
 24 25  1  0
 12 26  2  0
  3  7  1  0
  8 26  1  0
 18 23  1  0
  1 27  1  0
  1 28  1  0
  1 29  1  0
  2 30  1  0
  2 31  1  0
  9 32  1  0
 10 33  1  0
 13 34  1  0
 16 35  1  0
 17 36  1  0
 17 37  1  0
 19 38  1  0
 20 39  1  0
 21 40  1  0
 22 41  1  0
 24 42  1  0
 24 43  1  0
 25 44  1  0
 26 45  1  0
 46 47  1  0
 46 49  1  0
 46 50  1  0
 47 48  2  0
 47 51  1  0
 11 46  1  0
M  END
>  <CHROM.1>  (12) 
65.54951943,17.31776661,-178.12150393,66.29358976,-86.42720101,92.94566280
-178.26443940,-14.94787201,-5.71806082,-1.84865519,-0.72733613,-0.06183766
0.91603111

>  <Name>  (12) 
design_18

>  <RI>  (12) 
39991000.000000

>  <Rbt.Current_Directory>  (12) 
/pylon5/mc5pksp/smaltr/gateway_workdirs/PROCESS_93251df5-8da2-4fa9-b874-71853b29d1ad

>  <Rbt.Executable>  (12) 
rbdock ($Id: //depot/dev/client3/rdock/2013.1/src/exe/rbdock.cxx#4 $)

>  <Rbt.Library>  (12) 
libRbt.so (2013.1, Build901 2013/11/27)

>  <Rbt.Parameter_File>  (12) 
/home/smaltr/software/rDock_2013.1_src//data/scripts/dock.prm

>  <Rbt.Receptor>  (12) 
/pylon5/mc5pksp/smaltr/gateway_workdirs/PROCESS_93251df5-8da2-4fa9-b874-71853b29d1ad/output/SnD-Target-Sep02/cavity/pocket_docking.prm

>  <SCORE>  (12) 
-23.387500

>  <SCORE.INTER>  (12) 
-21.667500

>  <SCORE.INTER.CONST>  (12) 
1

>  <SCORE.INTER.POLAR>  (12) 
-2.282600

>  <SCORE.INTER.REPUL>  (12) 
0.002201

>  <SCORE.INTER.ROT>  (12) 
6

>  <SCORE.INTER.VDW>  (12) 
-25.317700

>  <SCORE.INTER.norm>  (12) 
-0.833366

>  <SCORE.INTRA>  (12) 
-1.720030

>  <SCORE.INTRA.DIHEDRAL>  (12) 
-0.068457

>  <SCORE.INTRA.DIHEDRAL.0>  (12) 
6.271440

>  <SCORE.INTRA.POLAR>  (12) 
0

>  <SCORE.INTRA.POLAR.0>  (12) 
0

>  <SCORE.INTRA.REPUL>  (12) 
-0.010613

>  <SCORE.INTRA.REPUL.0>  (12) 
0.031068

>  <SCORE.INTRA.VDW>  (12) 
-1.632730

>  <SCORE.INTRA.VDW.0>  (12) 
-0.730908

>  <SCORE.INTRA.norm>  (12) 
-0.066155

>  <SCORE.RESTR>  (12) 
0

>  <SCORE.RESTR.CAVITY>  (12) 
0

>  <SCORE.RESTR.norm>  (12) 
0

>  <SCORE.SYSTEM>  (12) 
0

>  <SCORE.SYSTEM.CONST>  (12) 
0

>  <SCORE.SYSTEM.DIHEDRAL>  (12) 
0

>  <SCORE.SYSTEM.norm>  (12) 
0

>  <SCORE.heavy>  (12) 
26

>  <SCORE.norm>  (12) 
-0.899520

>  <SMILES>  (12) 
CCn1nnnc1-c1cccc(NC(=O)NCc2ccccc2CO)c1

>  <Cycle>  (12) 
228

>  <MolWeight>  (12) 
352.398000

>  <LogP>  (12) 
2.174000

>  <QED>  (12) 
0.630513

>  <SAS>  (12) 
2.224531

$$$$
design_18
     RDKit          3D

 51 53  0  0  0  0  0  0  0  0999 V2000
   -9.4244   -8.5935   -5.3102 C   0  0  0  0  0  0  0  0  0  0  0  0
  -10.1049   -7.2664   -5.0695 C   0  0  0  0  0  0  0  0  0  0  0  0
  -10.5540   -7.2160   -3.7111 N   0  0  0  0  0  0  0  0  0  0  0  0
   -9.7218   -7.2077   -2.6445 N   0  0  0  0  0  0  0  0  0  0  0  0
  -10.4021   -7.1926   -1.5317 N   0  0  0  0  0  0  0  0  0  0  0  0
  -11.6600   -7.1906   -1.8823 N   0  0  0  0  0  0  0  0  0  0  0  0
  -11.7854   -7.2043   -3.2571 C   0  0  0  0  0  0  0  0  0  0  0  0
  -13.0799   -7.2310   -3.8985 C   0  0  0  0  0  0  0  0  0  0  0  0
  -13.3628   -7.5964   -5.1726 C   0  0  0  0  0  0  0  0  0  0  0  0
  -14.6360   -7.6401   -5.6996 C   0  0  0  0  0  0  0  0  0  0  0  0
  -15.7031   -7.3081   -4.9450 C   0  0  0  0  0  0  0  0  0  0  0  0
  -15.4955   -6.9166   -3.6125 C   0  0  0  0  0  0  0  0  0  0  0  0
  -16.6525   -6.5828   -2.8829 N   0  0  0  0  0  0  0  0  0  0  0  0
  -16.6866   -6.1347   -1.5663 C   0  0  0  0  0  0  0  0  0  0  0  0
  -15.6939   -5.9695   -0.8522 O   0  0  0  0  0  0  0  0  0  0  0  0
  -17.9676   -5.8312   -0.9604 N   0  0  0  0  0  0  0  0  0  0  0  0
  -18.0501   -5.3702    0.3838 C   0  0  0  0  0  0  0  0  0  0  0  0
  -17.4800   -4.0548    0.6684 C   0  0  0  0  0  0  0  0  0  0  0  0
  -16.1829   -3.7677    0.9812 C   0  0  0  0  0  0  0  0  0  0  0  0
  -15.7903   -2.4592    1.2269 C   0  0  0  0  0  0  0  0  0  0  0  0
  -16.6679   -1.4227    1.1675 C   0  0  0  0  0  0  0  0  0  0  0  0
  -17.9708   -1.6952    0.8552 C   0  0  0  0  0  0  0  0  0  0  0  0
  -18.3710   -2.9802    0.6108 C   0  0  0  0  0  0  0  0  0  0  0  0
  -19.8066   -3.2343    0.2726 C   0  0  0  0  0  0  0  0  0  0  0  0
  -20.5477   -3.4058    1.4212 O   0  0  0  0  0  0  0  0  0  0  0  0
  -14.2099   -6.8876   -3.1288 C   0  0  0  0  0  0  0  0  0  0  0  0
   -8.4565   -8.6010   -4.8090 H   0  0  0  0  0  0  0  0  0  0  0  0
  -10.0444   -9.3976   -4.9138 H   0  0  0  0  0  0  0  0  0  0  0  0
   -9.2798   -8.7394   -6.3807 H   0  0  0  0  0  0  0  0  0  0  0  0
  -10.9547   -7.1594   -5.7437 H   0  0  0  0  0  0  0  0  0  0  0  0
   -9.4011   -6.4547   -5.2535 H   0  0  0  0  0  0  0  0  0  0  0  0
  -12.5316   -7.8730   -5.8212 H   0  0  0  0  0  0  0  0  0  0  0  0
  -14.7814   -7.9458   -6.7357 H   0  0  0  0  0  0  0  0  0  0  0  0
  -16.7095   -7.3430   -5.3622 H   0  0  0  0  0  0  0  0  0  0  0  0
  -17.5384   -6.6773   -3.3587 H   0  0  0  0  0  0  0  0  0  0  0  0
  -18.8137   -5.9484   -1.4994 H   0  0  0  0  0  0  0  0  0  0  0  0
  -17.4479   -6.0714    0.9616 H   0  0  0  0  0  0  0  0  0  0  0  0
  -19.1047   -5.3389    0.6576 H   0  0  0  0  0  0  0  0  0  0  0  0
  -15.4496   -4.5721    1.0385 H   0  0  0  0  0  0  0  0  0  0  0  0
  -14.7483   -2.2569    1.4746 H   0  0  0  0  0  0  0  0  0  0  0  0
  -16.3415   -0.4014    1.3637 H   0  0  0  0  0  0  0  0  0  0  0  0
  -18.6956   -0.8829    0.8006 H   0  0  0  0  0  0  0  0  0  0  0  0
  -19.8727   -4.1408   -0.3290 H   0  0  0  0  0  0  0  0  0  0  0  0
  -20.2003   -2.3853   -0.2863 H   0  0  0  0  0  0  0  0  0  0  0  0
  -20.6381   -2.5636    1.8730 H   0  0  0  0  0  0  0  0  0  0  0  0
  -15.2163   -6.0227   -1.3005 C   0  0  0  0  0  0  0  0  0  0  0  0
  -14.0553   -6.5825   -2.0938 C   0  0  0  0  0  0  0  0  0  0  0  0
  -12.9325   -6.6992   -1.5850 O   0  0  0  0  0  0  0  0  0  0  0  0
  -14.9907   -5.0182   -0.9730 H   0  0  0  0  0  0  0  0  0  0  0  0
  -16.1057   -5.9994   -1.9131 H   0  0  0  0  0  0  0  0  0  0  0  0
  -15.4038   -6.6399   -0.4344 H   0  0  0  0  0  0  0  0  0  0  0  0
  1  2  1  0
  2  3  1  0
  3  4  1  0
  4  5  2  0
  5  6  1  0
  6  7  2  0
  7  8  1  0
  8  9  2  0
  9 10  1  0
 10 11  2  0
 11 12  1  0
 12 13  1  0
 13 14  1  0
 14 15  2  0
 14 16  1  0
 16 17  1  0
 17 18  1  0
 18 19  2  0
 19 20  1  0
 20 21  2  0
 21 22  1  0
 22 23  2  0
 23 24  1  0
 24 25  1  0
 12 26  2  0
  3  7  1  0
  8 26  1  0
 18 23  1  0
  1 27  1  0
  1 28  1  0
  1 29  1  0
  2 30  1  0
  2 31  1  0
  9 32  1  0
 10 33  1  0
 11 34  1  0
 13 35  1  0
 16 36  1  0
 17 37  1  0
 17 38  1  0
 19 39  1  0
 20 40  1  0
 21 41  1  0
 22 42  1  0
 24 43  1  0
 24 44  1  0
 25 45  1  0
 46 47  1  0
 46 49  1  0
 46 50  1  0
 46 51  1  0
 47 48  2  0
 26 47  1  0
M  END
>  <CHROM.1>  (13) 
65.54951943,17.31776661,-178.12150393,66.29358976,-86.42720101,92.94566280
-178.26443940,-14.94787201,-5.71806082,-1.84865519,-0.72733613,-0.06183766
0.91603111

>  <Name>  (13) 
design_18

>  <RI>  (13) 
39991000.000000

>  <Rbt.Current_Directory>  (13) 
/pylon5/mc5pksp/smaltr/gateway_workdirs/PROCESS_93251df5-8da2-4fa9-b874-71853b29d1ad

>  <Rbt.Executable>  (13) 
rbdock ($Id: //depot/dev/client3/rdock/2013.1/src/exe/rbdock.cxx#4 $)

>  <Rbt.Library>  (13) 
libRbt.so (2013.1, Build901 2013/11/27)

>  <Rbt.Parameter_File>  (13) 
/home/smaltr/software/rDock_2013.1_src//data/scripts/dock.prm

>  <Rbt.Receptor>  (13) 
/pylon5/mc5pksp/smaltr/gateway_workdirs/PROCESS_93251df5-8da2-4fa9-b874-71853b29d1ad/output/SnD-Target-Sep02/cavity/pocket_docking.prm

>  <SCORE>  (13) 
-23.387500

>  <SCORE.INTER>  (13) 
-21.667500

>  <SCORE.INTER.CONST>  (13) 
1

>  <SCORE.INTER.POLAR>  (13) 
-2.282600

>  <SCORE.INTER.REPUL>  (13) 
0.002201

>  <SCORE.INTER.ROT>  (13) 
6

>  <SCORE.INTER.VDW>  (13) 
-25.317700

>  <SCORE.INTER.norm>  (13) 
-0.833366

>  <SCORE.INTRA>  (13) 
-1.720030

>  <SCORE.INTRA.DIHEDRAL>  (13) 
-0.068457

>  <SCORE.INTRA.DIHEDRAL.0>  (13) 
6.271440

>  <SCORE.INTRA.POLAR>  (13) 
0

>  <SCORE.INTRA.POLAR.0>  (13) 
0

>  <SCORE.INTRA.REPUL>  (13) 
-0.010613

>  <SCORE.INTRA.REPUL.0>  (13) 
0.031068

>  <SCORE.INTRA.VDW>  (13) 
-1.632730

>  <SCORE.INTRA.VDW.0>  (13) 
-0.730908

>  <SCORE.INTRA.norm>  (13) 
-0.066155

>  <SCORE.RESTR>  (13) 
0

>  <SCORE.RESTR.CAVITY>  (13) 
0

>  <SCORE.RESTR.norm>  (13) 
0

>  <SCORE.SYSTEM>  (13) 
0

>  <SCORE.SYSTEM.CONST>  (13) 
0

>  <SCORE.SYSTEM.DIHEDRAL>  (13) 
0

>  <SCORE.SYSTEM.norm>  (13) 
0

>  <SCORE.heavy>  (13) 
26

>  <SCORE.norm>  (13) 
-0.899520

>  <SMILES>  (13) 
CCn1nnnc1-c1cccc(NC(=O)NCc2ccccc2CO)c1

>  <Cycle>  (13) 
228

>  <MolWeight>  (13) 
352.398000

>  <LogP>  (13) 
2.174000

>  <QED>  (13) 
0.630513

>  <SAS>  (13) 
2.224531

$$$$
design_18
     RDKit          3D

 51 53  0  0  0  0  0  0  0  0999 V2000
   -9.4244   -8.5935   -5.3102 C   0  0  0  0  0  0  0  0  0  0  0  0
  -10.1049   -7.2664   -5.0695 C   0  0  0  0  0  0  0  0  0  0  0  0
  -10.5540   -7.2160   -3.7111 N   0  0  0  0  0  0  0  0  0  0  0  0
   -9.7218   -7.2077   -2.6445 N   0  0  0  0  0  0  0  0  0  0  0  0
  -10.4021   -7.1926   -1.5317 N   0  0  0  0  0  0  0  0  0  0  0  0
  -11.6600   -7.1906   -1.8823 N   0  0  0  0  0  0  0  0  0  0  0  0
  -11.7854   -7.2043   -3.2571 C   0  0  0  0  0  0  0  0  0  0  0  0
  -13.0799   -7.2310   -3.8985 C   0  0  0  0  0  0  0  0  0  0  0  0
  -13.3628   -7.5964   -5.1726 C   0  0  0  0  0  0  0  0  0  0  0  0
  -14.6360   -7.6401   -5.6996 C   0  0  0  0  0  0  0  0  0  0  0  0
  -15.7031   -7.3081   -4.9450 C   0  0  0  0  0  0  0  0  0  0  0  0
  -15.4955   -6.9166   -3.6125 C   0  0  0  0  0  0  0  0  0  0  0  0
  -16.6525   -6.5828   -2.8829 N   0  0  0  0  0  0  0  0  0  0  0  0
  -16.6866   -6.1347   -1.5663 C   0  0  0  0  0  0  0  0  0  0  0  0
  -15.6939   -5.9695   -0.8522 O   0  0  0  0  0  0  0  0  0  0  0  0
  -17.9676   -5.8312   -0.9604 N   0  0  0  0  0  0  0  0  0  0  0  0
  -18.0501   -5.3702    0.3838 C   0  0  0  0  0  0  0  0  0  0  0  0
  -17.4800   -4.0548    0.6684 C   0  0  0  0  0  0  0  0  0  0  0  0
  -16.1829   -3.7677    0.9812 C   0  0  0  0  0  0  0  0  0  0  0  0
  -15.7903   -2.4592    1.2269 C   0  0  0  0  0  0  0  0  0  0  0  0
  -16.6679   -1.4227    1.1675 C   0  0  0  0  0  0  0  0  0  0  0  0
  -17.9708   -1.6952    0.8552 C   0  0  0  0  0  0  0  0  0  0  0  0
  -18.3710   -2.9802    0.6108 C   0  0  0  0  0  0  0  0  0  0  0  0
  -19.8066   -3.2343    0.2726 C   0  0  0  0  0  0  0  0  0  0  0  0
  -20.5477   -3.4058    1.4212 O   0  0  0  0  0  0  0  0  0  0  0  0
  -14.2099   -6.8876   -3.1288 C   0  0  0  0  0  0  0  0  0  0  0  0
   -8.4565   -8.6010   -4.8090 H   0  0  0  0  0  0  0  0  0  0  0  0
  -10.0444   -9.3976   -4.9138 H   0  0  0  0  0  0  0  0  0  0  0  0
   -9.2798   -8.7394   -6.3807 H   0  0  0  0  0  0  0  0  0  0  0  0
  -10.9547   -7.1594   -5.7437 H   0  0  0  0  0  0  0  0  0  0  0  0
   -9.4011   -6.4547   -5.2535 H   0  0  0  0  0  0  0  0  0  0  0  0
  -12.5316   -7.8730   -5.8212 H   0  0  0  0  0  0  0  0  0  0  0  0
  -14.7814   -7.9458   -6.7357 H   0  0  0  0  0  0  0  0  0  0  0  0
  -16.7095   -7.3430   -5.3622 H   0  0  0  0  0  0  0  0  0  0  0  0
  -17.5384   -6.6773   -3.3587 H   0  0  0  0  0  0  0  0  0  0  0  0
  -18.8137   -5.9484   -1.4994 H   0  0  0  0  0  0  0  0  0  0  0  0
  -17.4479   -6.0714    0.9616 H   0  0  0  0  0  0  0  0  0  0  0  0
  -19.1047   -5.3389    0.6576 H   0  0  0  0  0  0  0  0  0  0  0  0
  -15.4496   -4.5721    1.0385 H   0  0  0  0  0  0  0  0  0  0  0  0
  -14.7483   -2.2569    1.4746 H   0  0  0  0  0  0  0  0  0  0  0  0
  -16.3415   -0.4014    1.3637 H   0  0  0  0  0  0  0  0  0  0  0  0
  -18.6956   -0.8829    0.8006 H   0  0  0  0  0  0  0  0  0  0  0  0
  -19.8727   -4.1408   -0.3290 H   0  0  0  0  0  0  0  0  0  0  0  0
  -20.2003   -2.3853   -0.2863 H   0  0  0  0  0  0  0  0  0  0  0  0
  -20.6381   -2.5636    1.8730 H   0  0  0  0  0  0  0  0  0  0  0  0
  -14.0560   -6.5839   -2.0984 C   0  0  0  0  0  0  0  0  0  0  0  0
  -13.7001   -7.7862   -1.2510 C   0  0  0  0  0  0  0  0  0  0  0  0
  -12.6934   -8.4641   -1.4966 O   0  0  0  0  0  0  0  0  0  0  0  0
  -14.9625   -6.1267   -1.7295 H   0  0  0  0  0  0  0  0  0  0  0  0
  -13.2578   -5.8573   -2.0626 H   0  0  0  0  0  0  0  0  0  0  0  0
  -14.3396   -8.0597   -0.4117 H   0  0  0  0  0  0  0  0  0  0  0  0
  1  2  1  0
  2  3  1  0
  3  4  1  0
  4  5  2  0
  5  6  1  0
  6  7  2  0
  7  8  1  0
  8  9  2  0
  9 10  1  0
 10 11  2  0
 11 12  1  0
 12 13  1  0
 13 14  1  0
 14 15  2  0
 14 16  1  0
 16 17  1  0
 17 18  1  0
 18 19  2  0
 19 20  1  0
 20 21  2  0
 21 22  1  0
 22 23  2  0
 23 24  1  0
 24 25  1  0
 12 26  2  0
  3  7  1  0
  8 26  1  0
 18 23  1  0
  1 27  1  0
  1 28  1  0
  1 29  1  0
  2 30  1  0
  2 31  1  0
  9 32  1  0
 10 33  1  0
 11 34  1  0
 13 35  1  0
 16 36  1  0
 17 37  1  0
 17 38  1  0
 19 39  1  0
 20 40  1  0
 21 41  1  0
 22 42  1  0
 24 43  1  0
 24 44  1  0
 25 45  1  0
 46 47  1  0
 46 49  1  0
 46 50  1  0
 47 48  2  0
 47 51  1  0
 26 46  1  0
M  END
>  <CHROM.1>  (14) 
65.54951943,17.31776661,-178.12150393,66.29358976,-86.42720101,92.94566280
-178.26443940,-14.94787201,-5.71806082,-1.84865519,-0.72733613,-0.06183766
0.91603111

>  <Name>  (14) 
design_18

>  <RI>  (14) 
39991000.000000

>  <Rbt.Current_Directory>  (14) 
/pylon5/mc5pksp/smaltr/gateway_workdirs/PROCESS_93251df5-8da2-4fa9-b874-71853b29d1ad

>  <Rbt.Executable>  (14) 
rbdock ($Id: //depot/dev/client3/rdock/2013.1/src/exe/rbdock.cxx#4 $)

>  <Rbt.Library>  (14) 
libRbt.so (2013.1, Build901 2013/11/27)

>  <Rbt.Parameter_File>  (14) 
/home/smaltr/software/rDock_2013.1_src//data/scripts/dock.prm

>  <Rbt.Receptor>  (14) 
/pylon5/mc5pksp/smaltr/gateway_workdirs/PROCESS_93251df5-8da2-4fa9-b874-71853b29d1ad/output/SnD-Target-Sep02/cavity/pocket_docking.prm

>  <SCORE>  (14) 
-23.387500

>  <SCORE.INTER>  (14) 
-21.667500

>  <SCORE.INTER.CONST>  (14) 
1

>  <SCORE.INTER.POLAR>  (14) 
-2.282600

>  <SCORE.INTER.REPUL>  (14) 
0.002201

>  <SCORE.INTER.ROT>  (14) 
6

>  <SCORE.INTER.VDW>  (14) 
-25.317700

>  <SCORE.INTER.norm>  (14) 
-0.833366

>  <SCORE.INTRA>  (14) 
-1.720030

>  <SCORE.INTRA.DIHEDRAL>  (14) 
-0.068457

>  <SCORE.INTRA.DIHEDRAL.0>  (14) 
6.271440

>  <SCORE.INTRA.POLAR>  (14) 
0

>  <SCORE.INTRA.POLAR.0>  (14) 
0

>  <SCORE.INTRA.REPUL>  (14) 
-0.010613

>  <SCORE.INTRA.REPUL.0>  (14) 
0.031068

>  <SCORE.INTRA.VDW>  (14) 
-1.632730

>  <SCORE.INTRA.VDW.0>  (14) 
-0.730908

>  <SCORE.INTRA.norm>  (14) 
-0.066155

>  <SCORE.RESTR>  (14) 
0

>  <SCORE.RESTR.CAVITY>  (14) 
0

>  <SCORE.RESTR.norm>  (14) 
0

>  <SCORE.SYSTEM>  (14) 
0

>  <SCORE.SYSTEM.CONST>  (14) 
0

>  <SCORE.SYSTEM.DIHEDRAL>  (14) 
0

>  <SCORE.SYSTEM.norm>  (14) 
0

>  <SCORE.heavy>  (14) 
26

>  <SCORE.norm>  (14) 
-0.899520

>  <SMILES>  (14) 
CCn1nnnc1-c1cccc(NC(=O)NCc2ccccc2CO)c1

>  <Cycle>  (14) 
228

>  <MolWeight>  (14) 
352.398000

>  <LogP>  (14) 
2.174000

>  <QED>  (14) 
0.630513

>  <SAS>  (14) 
2.224531

$$$$
design_18
     RDKit          3D

 51 53  0  0  0  0  0  0  0  0999 V2000
   -9.4244   -8.5935   -5.3102 C   0  0  0  0  0  0  0  0  0  0  0  0
  -10.1049   -7.2664   -5.0695 C   0  0  0  0  0  0  0  0  0  0  0  0
  -10.5540   -7.2160   -3.7111 N   0  0  0  0  0  0  0  0  0  0  0  0
   -9.7218   -7.2077   -2.6445 N   0  0  0  0  0  0  0  0  0  0  0  0
  -10.4021   -7.1926   -1.5317 N   0  0  0  0  0  0  0  0  0  0  0  0
  -11.6600   -7.1906   -1.8823 N   0  0  0  0  0  0  0  0  0  0  0  0
  -11.7854   -7.2043   -3.2571 C   0  0  0  0  0  0  0  0  0  0  0  0
  -13.0799   -7.2310   -3.8985 C   0  0  0  0  0  0  0  0  0  0  0  0
  -13.3628   -7.5964   -5.1726 C   0  0  0  0  0  0  0  0  0  0  0  0
  -14.6360   -7.6401   -5.6996 C   0  0  0  0  0  0  0  0  0  0  0  0
  -15.7031   -7.3081   -4.9450 C   0  0  0  0  0  0  0  0  0  0  0  0
  -15.4955   -6.9166   -3.6125 C   0  0  0  0  0  0  0  0  0  0  0  0
  -16.6525   -6.5828   -2.8829 N   0  0  0  0  0  0  0  0  0  0  0  0
  -16.6866   -6.1347   -1.5663 C   0  0  0  0  0  0  0  0  0  0  0  0
  -15.6939   -5.9695   -0.8522 O   0  0  0  0  0  0  0  0  0  0  0  0
  -17.9676   -5.8312   -0.9604 N   0  0  0  0  0  0  0  0  0  0  0  0
  -18.0501   -5.3702    0.3838 C   0  0  0  0  0  0  0  0  0  0  0  0
  -17.4800   -4.0548    0.6684 C   0  0  0  0  0  0  0  0  0  0  0  0
  -16.1829   -3.7677    0.9812 C   0  0  0  0  0  0  0  0  0  0  0  0
  -15.7903   -2.4592    1.2269 C   0  0  0  0  0  0  0  0  0  0  0  0
  -16.6679   -1.4227    1.1675 C   0  0  0  0  0  0  0  0  0  0  0  0
  -17.9708   -1.6952    0.8552 C   0  0  0  0  0  0  0  0  0  0  0  0
  -18.3710   -2.9802    0.6108 C   0  0  0  0  0  0  0  0  0  0  0  0
  -19.8066   -3.2343    0.2726 C   0  0  0  0  0  0  0  0  0  0  0  0
  -20.5477   -3.4058    1.4212 O   0  0  0  0  0  0  0  0  0  0  0  0
  -14.2099   -6.8876   -3.1288 C   0  0  0  0  0  0  0  0  0  0  0  0
   -8.4565   -8.6010   -4.8090 H   0  0  0  0  0  0  0  0  0  0  0  0
  -10.0444   -9.3976   -4.9138 H   0  0  0  0  0  0  0  0  0  0  0  0
   -9.2798   -8.7394   -6.3807 H   0  0  0  0  0  0  0  0  0  0  0  0
  -10.9547   -7.1594   -5.7437 H   0  0  0  0  0  0  0  0  0  0  0  0
   -9.4011   -6.4547   -5.2535 H   0  0  0  0  0  0  0  0  0  0  0  0
  -12.5316   -7.8730   -5.8212 H   0  0  0  0  0  0  0  0  0  0  0  0
  -14.7814   -7.9458   -6.7357 H   0  0  0  0  0  0  0  0  0  0  0  0
  -16.7095   -7.3430   -5.3622 H   0  0  0  0  0  0  0  0  0  0  0  0
  -17.5384   -6.6773   -3.3587 H   0  0  0  0  0  0  0  0  0  0  0  0
  -18.8137   -5.9484   -1.4994 H   0  0  0  0  0  0  0  0  0  0  0  0
  -17.4479   -6.0714    0.9616 H   0  0  0  0  0  0  0  0  0  0  0  0
  -19.1047   -5.3389    0.6576 H   0  0  0  0  0  0  0  0  0  0  0  0
  -15.4496   -4.5721    1.0385 H   0  0  0  0  0  0  0  0  0  0  0  0
  -14.7483   -2.2569    1.4746 H   0  0  0  0  0  0  0  0  0  0  0  0
  -16.3415   -0.4014    1.3637 H   0  0  0  0  0  0  0  0  0  0  0  0
  -19.8727   -4.1408   -0.3290 H   0  0  0  0  0  0  0  0  0  0  0  0
  -20.2003   -2.3853   -0.2863 H   0  0  0  0  0  0  0  0  0  0  0  0
  -20.6381   -2.5636    1.8730 H   0  0  0  0  0  0  0  0  0  0  0  0
  -14.0553   -6.5825   -2.0938 H   0  0  0  0  0  0  0  0  0  0  0  0
  -20.1582   -1.2028    0.5793 C   0  0  0  0  0  0  0  0  0  0  0  0
  -18.6956   -0.8829    0.8006 C   0  0  0  0  0  0  0  0  0  0  0  0
  -18.3098    0.2876    0.9206 O   0  0  0  0  0  0  0  0  0  0  0  0
  -20.5055   -0.7364   -0.3312 H   0  0  0  0  0  0  0  0  0  0  0  0
  -20.2951   -2.2713    0.4991 H   0  0  0  0  0  0  0  0  0  0  0  0
  -20.7461   -0.8357    1.4075 H   0  0  0  0  0  0  0  0  0  0  0  0
  1  2  1  0
  2  3  1  0
  3  4  1  0
  4  5  2  0
  5  6  1  0
  6  7  2  0
  7  8  1  0
  8  9  2  0
  9 10  1  0
 10 11  2  0
 11 12  1  0
 12 13  1  0
 13 14  1  0
 14 15  2  0
 14 16  1  0
 16 17  1  0
 17 18  1  0
 18 19  2  0
 19 20  1  0
 20 21  2  0
 21 22  1  0
 22 23  2  0
 23 24  1  0
 24 25  1  0
 12 26  2  0
  3  7  1  0
  8 26  1  0
 18 23  1  0
  1 27  1  0
  1 28  1  0
  1 29  1  0
  2 30  1  0
  2 31  1  0
  9 32  1  0
 10 33  1  0
 11 34  1  0
 13 35  1  0
 16 36  1  0
 17 37  1  0
 17 38  1  0
 19 39  1  0
 20 40  1  0
 21 41  1  0
 24 42  1  0
 24 43  1  0
 25 44  1  0
 26 45  1  0
 46 47  1  0
 46 49  1  0
 46 50  1  0
 46 51  1  0
 47 48  2  0
 22 47  1  0
M  END
>  <CHROM.1>  (15) 
65.54951943,17.31776661,-178.12150393,66.29358976,-86.42720101,92.94566280
-178.26443940,-14.94787201,-5.71806082,-1.84865519,-0.72733613,-0.06183766
0.91603111

>  <Name>  (15) 
design_18

>  <RI>  (15) 
39991000.000000

>  <Rbt.Current_Directory>  (15) 
/pylon5/mc5pksp/smaltr/gateway_workdirs/PROCESS_93251df5-8da2-4fa9-b874-71853b29d1ad

>  <Rbt.Executable>  (15) 
rbdock ($Id: //depot/dev/client3/rdock/2013.1/src/exe/rbdock.cxx#4 $)

>  <Rbt.Library>  (15) 
libRbt.so (2013.1, Build901 2013/11/27)

>  <Rbt.Parameter_File>  (15) 
/home/smaltr/software/rDock_2013.1_src//data/scripts/dock.prm

>  <Rbt.Receptor>  (15) 
/pylon5/mc5pksp/smaltr/gateway_workdirs/PROCESS_93251df5-8da2-4fa9-b874-71853b29d1ad/output/SnD-Target-Sep02/cavity/pocket_docking.prm

>  <SCORE>  (15) 
-23.387500

>  <SCORE.INTER>  (15) 
-21.667500

>  <SCORE.INTER.CONST>  (15) 
1

>  <SCORE.INTER.POLAR>  (15) 
-2.282600

>  <SCORE.INTER.REPUL>  (15) 
0.002201

>  <SCORE.INTER.ROT>  (15) 
6

>  <SCORE.INTER.VDW>  (15) 
-25.317700

>  <SCORE.INTER.norm>  (15) 
-0.833366

>  <SCORE.INTRA>  (15) 
-1.720030

>  <SCORE.INTRA.DIHEDRAL>  (15) 
-0.068457

>  <SCORE.INTRA.DIHEDRAL.0>  (15) 
6.271440

>  <SCORE.INTRA.POLAR>  (15) 
0

>  <SCORE.INTRA.POLAR.0>  (15) 
0

>  <SCORE.INTRA.REPUL>  (15) 
-0.010613

>  <SCORE.INTRA.REPUL.0>  (15) 
0.031068

>  <SCORE.INTRA.VDW>  (15) 
-1.632730

>  <SCORE.INTRA.VDW.0>  (15) 
-0.730908

>  <SCORE.INTRA.norm>  (15) 
-0.066155

>  <SCORE.RESTR>  (15) 
0

>  <SCORE.RESTR.CAVITY>  (15) 
0

>  <SCORE.RESTR.norm>  (15) 
0

>  <SCORE.SYSTEM>  (15) 
0

>  <SCORE.SYSTEM.CONST>  (15) 
0

>  <SCORE.SYSTEM.DIHEDRAL>  (15) 
0

>  <SCORE.SYSTEM.norm>  (15) 
0

>  <SCORE.heavy>  (15) 
26

>  <SCORE.norm>  (15) 
-0.899520

>  <SMILES>  (15) 
CCn1nnnc1-c1cccc(NC(=O)NCc2ccccc2CO)c1

>  <Cycle>  (15) 
228

>  <MolWeight>  (15) 
352.398000

>  <LogP>  (15) 
2.174000

>  <QED>  (15) 
0.630513

>  <SAS>  (15) 
2.224531

$$$$
design_18
     RDKit          3D

 51 53  0  0  0  0  0  0  0  0999 V2000
   -9.4244   -8.5935   -5.3102 C   0  0  0  0  0  0  0  0  0  0  0  0
  -10.1049   -7.2664   -5.0695 C   0  0  0  0  0  0  0  0  0  0  0  0
  -10.5540   -7.2160   -3.7111 N   0  0  0  0  0  0  0  0  0  0  0  0
   -9.7218   -7.2077   -2.6445 N   0  0  0  0  0  0  0  0  0  0  0  0
  -10.4021   -7.1926   -1.5317 N   0  0  0  0  0  0  0  0  0  0  0  0
  -11.6600   -7.1906   -1.8823 N   0  0  0  0  0  0  0  0  0  0  0  0
  -11.7854   -7.2043   -3.2571 C   0  0  0  0  0  0  0  0  0  0  0  0
  -13.0799   -7.2310   -3.8985 C   0  0  0  0  0  0  0  0  0  0  0  0
  -13.3628   -7.5964   -5.1726 C   0  0  0  0  0  0  0  0  0  0  0  0
  -14.6360   -7.6401   -5.6996 C   0  0  0  0  0  0  0  0  0  0  0  0
  -15.7031   -7.3081   -4.9450 C   0  0  0  0  0  0  0  0  0  0  0  0
  -15.4955   -6.9166   -3.6125 C   0  0  0  0  0  0  0  0  0  0  0  0
  -16.6525   -6.5828   -2.8829 N   0  0  0  0  0  0  0  0  0  0  0  0
  -16.6866   -6.1347   -1.5663 C   0  0  0  0  0  0  0  0  0  0  0  0
  -15.6939   -5.9695   -0.8522 O   0  0  0  0  0  0  0  0  0  0  0  0
  -17.9676   -5.8312   -0.9604 N   0  0  0  0  0  0  0  0  0  0  0  0
  -18.0501   -5.3702    0.3838 C   0  0  0  0  0  0  0  0  0  0  0  0
  -17.4800   -4.0548    0.6684 C   0  0  0  0  0  0  0  0  0  0  0  0
  -16.1829   -3.7677    0.9812 C   0  0  0  0  0  0  0  0  0  0  0  0
  -15.7903   -2.4592    1.2269 C   0  0  0  0  0  0  0  0  0  0  0  0
  -16.6679   -1.4227    1.1675 C   0  0  0  0  0  0  0  0  0  0  0  0
  -17.9708   -1.6952    0.8552 C   0  0  0  0  0  0  0  0  0  0  0  0
  -18.3710   -2.9802    0.6108 C   0  0  0  0  0  0  0  0  0  0  0  0
  -19.8066   -3.2343    0.2726 C   0  0  0  0  0  0  0  0  0  0  0  0
  -20.5477   -3.4058    1.4212 O   0  0  0  0  0  0  0  0  0  0  0  0
  -14.2099   -6.8876   -3.1288 C   0  0  0  0  0  0  0  0  0  0  0  0
   -8.4565   -8.6010   -4.8090 H   0  0  0  0  0  0  0  0  0  0  0  0
  -10.0444   -9.3976   -4.9138 H   0  0  0  0  0  0  0  0  0  0  0  0
   -9.2798   -8.7394   -6.3807 H   0  0  0  0  0  0  0  0  0  0  0  0
  -10.9547   -7.1594   -5.7437 H   0  0  0  0  0  0  0  0  0  0  0  0
   -9.4011   -6.4547   -5.2535 H   0  0  0  0  0  0  0  0  0  0  0  0
  -12.5316   -7.8730   -5.8212 H   0  0  0  0  0  0  0  0  0  0  0  0
  -14.7814   -7.9458   -6.7357 H   0  0  0  0  0  0  0  0  0  0  0  0
  -16.7095   -7.3430   -5.3622 H   0  0  0  0  0  0  0  0  0  0  0  0
  -17.5384   -6.6773   -3.3587 H   0  0  0  0  0  0  0  0  0  0  0  0
  -18.8137   -5.9484   -1.4994 H   0  0  0  0  0  0  0  0  0  0  0  0
  -17.4479   -6.0714    0.9616 H   0  0  0  0  0  0  0  0  0  0  0  0
  -19.1047   -5.3389    0.6576 H   0  0  0  0  0  0  0  0  0  0  0  0
  -15.4496   -4.5721    1.0385 H   0  0  0  0  0  0  0  0  0  0  0  0
  -14.7483   -2.2569    1.4746 H   0  0  0  0  0  0  0  0  0  0  0  0
  -16.3415   -0.4014    1.3637 H   0  0  0  0  0  0  0  0  0  0  0  0
  -19.8727   -4.1408   -0.3290 H   0  0  0  0  0  0  0  0  0  0  0  0
  -20.2003   -2.3853   -0.2863 H   0  0  0  0  0  0  0  0  0  0  0  0
  -20.6381   -2.5636    1.8730 H   0  0  0  0  0  0  0  0  0  0  0  0
  -14.0553   -6.5825   -2.0938 H   0  0  0  0  0  0  0  0  0  0  0  0
  -18.6924   -0.8865    0.8008 C   0  0  0  0  0  0  0  0  0  0  0  0
  -18.0022    0.4406    1.0307 C   0  0  0  0  0  0  0  0  0  0  0  0
  -17.0937    0.8251    0.2823 O   0  0  0  0  0  0  0  0  0  0  0  0
  -19.4513   -1.0439    1.5532 H   0  0  0  0  0  0  0  0  0  0  0  0
  -19.1579   -0.8970   -0.1735 H   0  0  0  0  0  0  0  0  0  0  0  0
  -18.3095    1.0676    1.8677 H   0  0  0  0  0  0  0  0  0  0  0  0
  1  2  1  0
  2  3  1  0
  3  4  1  0
  4  5  2  0
  5  6  1  0
  6  7  2  0
  7  8  1  0
  8  9  2  0
  9 10  1  0
 10 11  2  0
 11 12  1  0
 12 13  1  0
 13 14  1  0
 14 15  2  0
 14 16  1  0
 16 17  1  0
 17 18  1  0
 18 19  2  0
 19 20  1  0
 20 21  2  0
 21 22  1  0
 22 23  2  0
 23 24  1  0
 24 25  1  0
 12 26  2  0
  3  7  1  0
  8 26  1  0
 18 23  1  0
  1 27  1  0
  1 28  1  0
  1 29  1  0
  2 30  1  0
  2 31  1  0
  9 32  1  0
 10 33  1  0
 11 34  1  0
 13 35  1  0
 16 36  1  0
 17 37  1  0
 17 38  1  0
 19 39  1  0
 20 40  1  0
 21 41  1  0
 24 42  1  0
 24 43  1  0
 25 44  1  0
 26 45  1  0
 46 47  1  0
 46 49  1  0
 46 50  1  0
 47 48  2  0
 47 51  1  0
 22 46  1  0
M  END
>  <CHROM.1>  (16) 
65.54951943,17.31776661,-178.12150393,66.29358976,-86.42720101,92.94566280
-178.26443940,-14.94787201,-5.71806082,-1.84865519,-0.72733613,-0.06183766
0.91603111

>  <Name>  (16) 
design_18

>  <RI>  (16) 
39991000.000000

>  <Rbt.Current_Directory>  (16) 
/pylon5/mc5pksp/smaltr/gateway_workdirs/PROCESS_93251df5-8da2-4fa9-b874-71853b29d1ad

>  <Rbt.Executable>  (16) 
rbdock ($Id: //depot/dev/client3/rdock/2013.1/src/exe/rbdock.cxx#4 $)

>  <Rbt.Library>  (16) 
libRbt.so (2013.1, Build901 2013/11/27)

>  <Rbt.Parameter_File>  (16) 
/home/smaltr/software/rDock_2013.1_src//data/scripts/dock.prm

>  <Rbt.Receptor>  (16) 
/pylon5/mc5pksp/smaltr/gateway_workdirs/PROCESS_93251df5-8da2-4fa9-b874-71853b29d1ad/output/SnD-Target-Sep02/cavity/pocket_docking.prm

>  <SCORE>  (16) 
-23.387500

>  <SCORE.INTER>  (16) 
-21.667500

>  <SCORE.INTER.CONST>  (16) 
1

>  <SCORE.INTER.POLAR>  (16) 
-2.282600

>  <SCORE.INTER.REPUL>  (16) 
0.002201

>  <SCORE.INTER.ROT>  (16) 
6

>  <SCORE.INTER.VDW>  (16) 
-25.317700

>  <SCORE.INTER.norm>  (16) 
-0.833366

>  <SCORE.INTRA>  (16) 
-1.720030

>  <SCORE.INTRA.DIHEDRAL>  (16) 
-0.068457

>  <SCORE.INTRA.DIHEDRAL.0>  (16) 
6.271440

>  <SCORE.INTRA.POLAR>  (16) 
0

>  <SCORE.INTRA.POLAR.0>  (16) 
0

>  <SCORE.INTRA.REPUL>  (16) 
-0.010613

>  <SCORE.INTRA.REPUL.0>  (16) 
0.031068

>  <SCORE.INTRA.VDW>  (16) 
-1.632730

>  <SCORE.INTRA.VDW.0>  (16) 
-0.730908

>  <SCORE.INTRA.norm>  (16) 
-0.066155

>  <SCORE.RESTR>  (16) 
0

>  <SCORE.RESTR.CAVITY>  (16) 
0

>  <SCORE.RESTR.norm>  (16) 
0

>  <SCORE.SYSTEM>  (16) 
0

>  <SCORE.SYSTEM.CONST>  (16) 
0

>  <SCORE.SYSTEM.DIHEDRAL>  (16) 
0

>  <SCORE.SYSTEM.norm>  (16) 
0

>  <SCORE.heavy>  (16) 
26

>  <SCORE.norm>  (16) 
-0.899520

>  <SMILES>  (16) 
CCn1nnnc1-c1cccc(NC(=O)NCc2ccccc2CO)c1

>  <Cycle>  (16) 
228

>  <MolWeight>  (16) 
352.398000

>  <LogP>  (16) 
2.174000

>  <QED>  (16) 
0.630513

>  <SAS>  (16) 
2.224531

$$$$
design_18
     RDKit          3D

 51 53  0  0  0  0  0  0  0  0999 V2000
   -9.4244   -8.5935   -5.3102 C   0  0  0  0  0  0  0  0  0  0  0  0
  -10.1049   -7.2664   -5.0695 C   0  0  0  0  0  0  0  0  0  0  0  0
  -10.5540   -7.2160   -3.7111 N   0  0  0  0  0  0  0  0  0  0  0  0
   -9.7218   -7.2077   -2.6445 N   0  0  0  0  0  0  0  0  0  0  0  0
  -10.4021   -7.1926   -1.5317 N   0  0  0  0  0  0  0  0  0  0  0  0
  -11.6600   -7.1906   -1.8823 N   0  0  0  0  0  0  0  0  0  0  0  0
  -11.7854   -7.2043   -3.2571 C   0  0  0  0  0  0  0  0  0  0  0  0
  -13.0799   -7.2310   -3.8985 C   0  0  0  0  0  0  0  0  0  0  0  0
  -13.3628   -7.5964   -5.1726 C   0  0  0  0  0  0  0  0  0  0  0  0
  -14.6360   -7.6401   -5.6996 C   0  0  0  0  0  0  0  0  0  0  0  0
  -15.7031   -7.3081   -4.9450 C   0  0  0  0  0  0  0  0  0  0  0  0
  -15.4955   -6.9166   -3.6125 C   0  0  0  0  0  0  0  0  0  0  0  0
  -16.6525   -6.5828   -2.8829 N   0  0  0  0  0  0  0  0  0  0  0  0
  -16.6866   -6.1347   -1.5663 C   0  0  0  0  0  0  0  0  0  0  0  0
  -15.6939   -5.9695   -0.8522 O   0  0  0  0  0  0  0  0  0  0  0  0
  -17.9676   -5.8312   -0.9604 N   0  0  0  0  0  0  0  0  0  0  0  0
  -18.0501   -5.3702    0.3838 C   0  0  0  0  0  0  0  0  0  0  0  0
  -17.4800   -4.0548    0.6684 C   0  0  0  0  0  0  0  0  0  0  0  0
  -16.1829   -3.7677    0.9812 C   0  0  0  0  0  0  0  0  0  0  0  0
  -15.7903   -2.4592    1.2269 C   0  0  0  0  0  0  0  0  0  0  0  0
  -16.6679   -1.4227    1.1675 C   0  0  0  0  0  0  0  0  0  0  0  0
  -17.9708   -1.6952    0.8552 C   0  0  0  0  0  0  0  0  0  0  0  0
  -18.3710   -2.9802    0.6108 C   0  0  0  0  0  0  0  0  0  0  0  0
  -19.8066   -3.2343    0.2726 C   0  0  0  0  0  0  0  0  0  0  0  0
  -20.5477   -3.4058    1.4212 O   0  0  0  0  0  0  0  0  0  0  0  0
  -14.2099   -6.8876   -3.1288 C   0  0  0  0  0  0  0  0  0  0  0  0
   -8.4565   -8.6010   -4.8090 H   0  0  0  0  0  0  0  0  0  0  0  0
  -10.0444   -9.3976   -4.9138 H   0  0  0  0  0  0  0  0  0  0  0  0
   -9.2798   -8.7394   -6.3807 H   0  0  0  0  0  0  0  0  0  0  0  0
  -10.9547   -7.1594   -5.7437 H   0  0  0  0  0  0  0  0  0  0  0  0
   -9.4011   -6.4547   -5.2535 H   0  0  0  0  0  0  0  0  0  0  0  0
  -12.5316   -7.8730   -5.8212 H   0  0  0  0  0  0  0  0  0  0  0  0
  -14.7814   -7.9458   -6.7357 H   0  0  0  0  0  0  0  0  0  0  0  0
  -16.7095   -7.3430   -5.3622 H   0  0  0  0  0  0  0  0  0  0  0  0
  -17.5384   -6.6773   -3.3587 H   0  0  0  0  0  0  0  0  0  0  0  0
  -18.8137   -5.9484   -1.4994 H   0  0  0  0  0  0  0  0  0  0  0  0
  -17.4479   -6.0714    0.9616 H   0  0  0  0  0  0  0  0  0  0  0  0
  -19.1047   -5.3389    0.6576 H   0  0  0  0  0  0  0  0  0  0  0  0
  -14.7483   -2.2569    1.4746 H   0  0  0  0  0  0  0  0  0  0  0  0
  -16.3415   -0.4014    1.3637 H   0  0  0  0  0  0  0  0  0  0  0  0
  -18.6956   -0.8829    0.8006 H   0  0  0  0  0  0  0  0  0  0  0  0
  -19.8727   -4.1408   -0.3290 H   0  0  0  0  0  0  0  0  0  0  0  0
  -20.2003   -2.3853   -0.2863 H   0  0  0  0  0  0  0  0  0  0  0  0
  -20.6381   -2.5636    1.8730 H   0  0  0  0  0  0  0  0  0  0  0  0
  -14.0553   -6.5825   -2.0938 H   0  0  0  0  0  0  0  0  0  0  0  0
  -15.8733   -5.9317    1.5508 C   0  0  0  0  0  0  0  0  0  0  0  0
  -15.4496   -4.5721    1.0385 C   0  0  0  0  0  0  0  0  0  0  0  0
  -14.2825   -4.3597    0.6834 O   0  0  0  0  0  0  0  0  0  0  0  0
  -15.2996   -6.1918    2.4285 H   0  0  0  0  0  0  0  0  0  0  0  0
  -16.9219   -5.9190    1.8097 H   0  0  0  0  0  0  0  0  0  0  0  0
  -15.7094   -6.6807    0.7903 H   0  0  0  0  0  0  0  0  0  0  0  0
  1  2  1  0
  2  3  1  0
  3  4  1  0
  4  5  2  0
  5  6  1  0
  6  7  2  0
  7  8  1  0
  8  9  2  0
  9 10  1  0
 10 11  2  0
 11 12  1  0
 12 13  1  0
 13 14  1  0
 14 15  2  0
 14 16  1  0
 16 17  1  0
 17 18  1  0
 18 19  2  0
 19 20  1  0
 20 21  2  0
 21 22  1  0
 22 23  2  0
 23 24  1  0
 24 25  1  0
 12 26  2  0
  3  7  1  0
  8 26  1  0
 18 23  1  0
  1 27  1  0
  1 28  1  0
  1 29  1  0
  2 30  1  0
  2 31  1  0
  9 32  1  0
 10 33  1  0
 11 34  1  0
 13 35  1  0
 16 36  1  0
 17 37  1  0
 17 38  1  0
 20 39  1  0
 21 40  1  0
 22 41  1  0
 24 42  1  0
 24 43  1  0
 25 44  1  0
 26 45  1  0
 46 47  1  0
 46 49  1  0
 46 50  1  0
 46 51  1  0
 47 48  2  0
 19 47  1  0
M  END
>  <CHROM.1>  (17) 
65.54951943,17.31776661,-178.12150393,66.29358976,-86.42720101,92.94566280
-178.26443940,-14.94787201,-5.71806082,-1.84865519,-0.72733613,-0.06183766
0.91603111

>  <Name>  (17) 
design_18

>  <RI>  (17) 
39991000.000000

>  <Rbt.Current_Directory>  (17) 
/pylon5/mc5pksp/smaltr/gateway_workdirs/PROCESS_93251df5-8da2-4fa9-b874-71853b29d1ad

>  <Rbt.Executable>  (17) 
rbdock ($Id: //depot/dev/client3/rdock/2013.1/src/exe/rbdock.cxx#4 $)

>  <Rbt.Library>  (17) 
libRbt.so (2013.1, Build901 2013/11/27)

>  <Rbt.Parameter_File>  (17) 
/home/smaltr/software/rDock_2013.1_src//data/scripts/dock.prm

>  <Rbt.Receptor>  (17) 
/pylon5/mc5pksp/smaltr/gateway_workdirs/PROCESS_93251df5-8da2-4fa9-b874-71853b29d1ad/output/SnD-Target-Sep02/cavity/pocket_docking.prm

>  <SCORE>  (17) 
-23.387500

>  <SCORE.INTER>  (17) 
-21.667500

>  <SCORE.INTER.CONST>  (17) 
1

>  <SCORE.INTER.POLAR>  (17) 
-2.282600

>  <SCORE.INTER.REPUL>  (17) 
0.002201

>  <SCORE.INTER.ROT>  (17) 
6

>  <SCORE.INTER.VDW>  (17) 
-25.317700

>  <SCORE.INTER.norm>  (17) 
-0.833366

>  <SCORE.INTRA>  (17) 
-1.720030

>  <SCORE.INTRA.DIHEDRAL>  (17) 
-0.068457

>  <SCORE.INTRA.DIHEDRAL.0>  (17) 
6.271440

>  <SCORE.INTRA.POLAR>  (17) 
0

>  <SCORE.INTRA.POLAR.0>  (17) 
0

>  <SCORE.INTRA.REPUL>  (17) 
-0.010613

>  <SCORE.INTRA.REPUL.0>  (17) 
0.031068

>  <SCORE.INTRA.VDW>  (17) 
-1.632730

>  <SCORE.INTRA.VDW.0>  (17) 
-0.730908

>  <SCORE.INTRA.norm>  (17) 
-0.066155

>  <SCORE.RESTR>  (17) 
0

>  <SCORE.RESTR.CAVITY>  (17) 
0

>  <SCORE.RESTR.norm>  (17) 
0

>  <SCORE.SYSTEM>  (17) 
0

>  <SCORE.SYSTEM.CONST>  (17) 
0

>  <SCORE.SYSTEM.DIHEDRAL>  (17) 
0

>  <SCORE.SYSTEM.norm>  (17) 
0

>  <SCORE.heavy>  (17) 
26

>  <SCORE.norm>  (17) 
-0.899520

>  <SMILES>  (17) 
CCn1nnnc1-c1cccc(NC(=O)NCc2ccccc2CO)c1

>  <Cycle>  (17) 
228

>  <MolWeight>  (17) 
352.398000

>  <LogP>  (17) 
2.174000

>  <QED>  (17) 
0.630513

>  <SAS>  (17) 
2.224531

$$$$
design_18
     RDKit          3D

 51 53  0  0  0  0  0  0  0  0999 V2000
   -9.4244   -8.5935   -5.3102 C   0  0  0  0  0  0  0  0  0  0  0  0
  -10.1049   -7.2664   -5.0695 C   0  0  0  0  0  0  0  0  0  0  0  0
  -10.5540   -7.2160   -3.7111 N   0  0  0  0  0  0  0  0  0  0  0  0
   -9.7218   -7.2077   -2.6445 N   0  0  0  0  0  0  0  0  0  0  0  0
  -10.4021   -7.1926   -1.5317 N   0  0  0  0  0  0  0  0  0  0  0  0
  -11.6600   -7.1906   -1.8823 N   0  0  0  0  0  0  0  0  0  0  0  0
  -11.7854   -7.2043   -3.2571 C   0  0  0  0  0  0  0  0  0  0  0  0
  -13.0799   -7.2310   -3.8985 C   0  0  0  0  0  0  0  0  0  0  0  0
  -13.3628   -7.5964   -5.1726 C   0  0  0  0  0  0  0  0  0  0  0  0
  -14.6360   -7.6401   -5.6996 C   0  0  0  0  0  0  0  0  0  0  0  0
  -15.7031   -7.3081   -4.9450 C   0  0  0  0  0  0  0  0  0  0  0  0
  -15.4955   -6.9166   -3.6125 C   0  0  0  0  0  0  0  0  0  0  0  0
  -16.6525   -6.5828   -2.8829 N   0  0  0  0  0  0  0  0  0  0  0  0
  -16.6866   -6.1347   -1.5663 C   0  0  0  0  0  0  0  0  0  0  0  0
  -15.6939   -5.9695   -0.8522 O   0  0  0  0  0  0  0  0  0  0  0  0
  -17.9676   -5.8312   -0.9604 N   0  0  0  0  0  0  0  0  0  0  0  0
  -18.0501   -5.3702    0.3838 C   0  0  0  0  0  0  0  0  0  0  0  0
  -17.4800   -4.0548    0.6684 C   0  0  0  0  0  0  0  0  0  0  0  0
  -16.1829   -3.7677    0.9812 C   0  0  0  0  0  0  0  0  0  0  0  0
  -15.7903   -2.4592    1.2269 C   0  0  0  0  0  0  0  0  0  0  0  0
  -16.6679   -1.4227    1.1675 C   0  0  0  0  0  0  0  0  0  0  0  0
  -17.9708   -1.6952    0.8552 C   0  0  0  0  0  0  0  0  0  0  0  0
  -18.3710   -2.9802    0.6108 C   0  0  0  0  0  0  0  0  0  0  0  0
  -19.8066   -3.2343    0.2726 C   0  0  0  0  0  0  0  0  0  0  0  0
  -20.5477   -3.4058    1.4212 O   0  0  0  0  0  0  0  0  0  0  0  0
  -14.2099   -6.8876   -3.1288 C   0  0  0  0  0  0  0  0  0  0  0  0
   -8.4565   -8.6010   -4.8090 H   0  0  0  0  0  0  0  0  0  0  0  0
  -10.0444   -9.3976   -4.9138 H   0  0  0  0  0  0  0  0  0  0  0  0
   -9.2798   -8.7394   -6.3807 H   0  0  0  0  0  0  0  0  0  0  0  0
  -10.9547   -7.1594   -5.7437 H   0  0  0  0  0  0  0  0  0  0  0  0
   -9.4011   -6.4547   -5.2535 H   0  0  0  0  0  0  0  0  0  0  0  0
  -12.5316   -7.8730   -5.8212 H   0  0  0  0  0  0  0  0  0  0  0  0
  -14.7814   -7.9458   -6.7357 H   0  0  0  0  0  0  0  0  0  0  0  0
  -16.7095   -7.3430   -5.3622 H   0  0  0  0  0  0  0  0  0  0  0  0
  -17.5384   -6.6773   -3.3587 H   0  0  0  0  0  0  0  0  0  0  0  0
  -18.8137   -5.9484   -1.4994 H   0  0  0  0  0  0  0  0  0  0  0  0
  -17.4479   -6.0714    0.9616 H   0  0  0  0  0  0  0  0  0  0  0  0
  -19.1047   -5.3389    0.6576 H   0  0  0  0  0  0  0  0  0  0  0  0
  -14.7483   -2.2569    1.4746 H   0  0  0  0  0  0  0  0  0  0  0  0
  -16.3415   -0.4014    1.3637 H   0  0  0  0  0  0  0  0  0  0  0  0
  -18.6956   -0.8829    0.8006 H   0  0  0  0  0  0  0  0  0  0  0  0
  -19.8727   -4.1408   -0.3290 H   0  0  0  0  0  0  0  0  0  0  0  0
  -20.2003   -2.3853   -0.2863 H   0  0  0  0  0  0  0  0  0  0  0  0
  -20.6381   -2.5636    1.8730 H   0  0  0  0  0  0  0  0  0  0  0  0
  -14.0553   -6.5825   -2.0938 H   0  0  0  0  0  0  0  0  0  0  0  0
  -15.4528   -4.5686    1.0382 C   0  0  0  0  0  0  0  0  0  0  0  0
  -16.0249   -5.8353    0.4394 C   0  0  0  0  0  0  0  0  0  0  0  0
  -16.3904   -5.8732   -0.7431 O   0  0  0  0  0  0  0  0  0  0  0  0
  -15.1945   -4.7331    2.0741 H   0  0  0  0  0  0  0  0  0  0  0  0
  -14.5653   -4.2729    0.4988 H   0  0  0  0  0  0  0  0  0  0  0  0
  -16.1164   -6.7279    1.0584 H   0  0  0  0  0  0  0  0  0  0  0  0
  1  2  1  0
  2  3  1  0
  3  4  1  0
  4  5  2  0
  5  6  1  0
  6  7  2  0
  7  8  1  0
  8  9  2  0
  9 10  1  0
 10 11  2  0
 11 12  1  0
 12 13  1  0
 13 14  1  0
 14 15  2  0
 14 16  1  0
 16 17  1  0
 17 18  1  0
 18 19  2  0
 19 20  1  0
 20 21  2  0
 21 22  1  0
 22 23  2  0
 23 24  1  0
 24 25  1  0
 12 26  2  0
  3  7  1  0
  8 26  1  0
 18 23  1  0
  1 27  1  0
  1 28  1  0
  1 29  1  0
  2 30  1  0
  2 31  1  0
  9 32  1  0
 10 33  1  0
 11 34  1  0
 13 35  1  0
 16 36  1  0
 17 37  1  0
 17 38  1  0
 20 39  1  0
 21 40  1  0
 22 41  1  0
 24 42  1  0
 24 43  1  0
 25 44  1  0
 26 45  1  0
 46 47  1  0
 46 49  1  0
 46 50  1  0
 47 48  2  0
 47 51  1  0
 19 46  1  0
M  END
>  <CHROM.1>  (18) 
65.54951943,17.31776661,-178.12150393,66.29358976,-86.42720101,92.94566280
-178.26443940,-14.94787201,-5.71806082,-1.84865519,-0.72733613,-0.06183766
0.91603111

>  <Name>  (18) 
design_18

>  <RI>  (18) 
39991000.000000

>  <Rbt.Current_Directory>  (18) 
/pylon5/mc5pksp/smaltr/gateway_workdirs/PROCESS_93251df5-8da2-4fa9-b874-71853b29d1ad

>  <Rbt.Executable>  (18) 
rbdock ($Id: //depot/dev/client3/rdock/2013.1/src/exe/rbdock.cxx#4 $)

>  <Rbt.Library>  (18) 
libRbt.so (2013.1, Build901 2013/11/27)

>  <Rbt.Parameter_File>  (18) 
/home/smaltr/software/rDock_2013.1_src//data/scripts/dock.prm

>  <Rbt.Receptor>  (18) 
/pylon5/mc5pksp/smaltr/gateway_workdirs/PROCESS_93251df5-8da2-4fa9-b874-71853b29d1ad/output/SnD-Target-Sep02/cavity/pocket_docking.prm

>  <SCORE>  (18) 
-23.387500

>  <SCORE.INTER>  (18) 
-21.667500

>  <SCORE.INTER.CONST>  (18) 
1

>  <SCORE.INTER.POLAR>  (18) 
-2.282600

>  <SCORE.INTER.REPUL>  (18) 
0.002201

>  <SCORE.INTER.ROT>  (18) 
6

>  <SCORE.INTER.VDW>  (18) 
-25.317700

>  <SCORE.INTER.norm>  (18) 
-0.833366

>  <SCORE.INTRA>  (18) 
-1.720030

>  <SCORE.INTRA.DIHEDRAL>  (18) 
-0.068457

>  <SCORE.INTRA.DIHEDRAL.0>  (18) 
6.271440

>  <SCORE.INTRA.POLAR>  (18) 
0

>  <SCORE.INTRA.POLAR.0>  (18) 
0

>  <SCORE.INTRA.REPUL>  (18) 
-0.010613

>  <SCORE.INTRA.REPUL.0>  (18) 
0.031068

>  <SCORE.INTRA.VDW>  (18) 
-1.632730

>  <SCORE.INTRA.VDW.0>  (18) 
-0.730908

>  <SCORE.INTRA.norm>  (18) 
-0.066155

>  <SCORE.RESTR>  (18) 
0

>  <SCORE.RESTR.CAVITY>  (18) 
0

>  <SCORE.RESTR.norm>  (18) 
0

>  <SCORE.SYSTEM>  (18) 
0

>  <SCORE.SYSTEM.CONST>  (18) 
0

>  <SCORE.SYSTEM.DIHEDRAL>  (18) 
0

>  <SCORE.SYSTEM.norm>  (18) 
0

>  <SCORE.heavy>  (18) 
26

>  <SCORE.norm>  (18) 
-0.899520

>  <SMILES>  (18) 
CCn1nnnc1-c1cccc(NC(=O)NCc2ccccc2CO)c1

>  <Cycle>  (18) 
228

>  <MolWeight>  (18) 
352.398000

>  <LogP>  (18) 
2.174000

>  <QED>  (18) 
0.630513

>  <SAS>  (18) 
2.224531

$$$$
design_18
     RDKit          3D

 51 53  0  0  0  0  0  0  0  0999 V2000
   -9.4244   -8.5935   -5.3102 C   0  0  0  0  0  0  0  0  0  0  0  0
  -10.1049   -7.2664   -5.0695 C   0  0  0  0  0  0  0  0  0  0  0  0
  -10.5540   -7.2160   -3.7111 N   0  0  0  0  0  0  0  0  0  0  0  0
   -9.7218   -7.2077   -2.6445 N   0  0  0  0  0  0  0  0  0  0  0  0
  -10.4021   -7.1926   -1.5317 N   0  0  0  0  0  0  0  0  0  0  0  0
  -11.6600   -7.1906   -1.8823 N   0  0  0  0  0  0  0  0  0  0  0  0
  -11.7854   -7.2043   -3.2571 C   0  0  0  0  0  0  0  0  0  0  0  0
  -13.0799   -7.2310   -3.8985 C   0  0  0  0  0  0  0  0  0  0  0  0
  -13.3628   -7.5964   -5.1726 C   0  0  0  0  0  0  0  0  0  0  0  0
  -14.6360   -7.6401   -5.6996 C   0  0  0  0  0  0  0  0  0  0  0  0
  -15.7031   -7.3081   -4.9450 C   0  0  0  0  0  0  0  0  0  0  0  0
  -15.4955   -6.9166   -3.6125 C   0  0  0  0  0  0  0  0  0  0  0  0
  -16.6525   -6.5828   -2.8829 N   0  0  0  0  0  0  0  0  0  0  0  0
  -16.6866   -6.1347   -1.5663 C   0  0  0  0  0  0  0  0  0  0  0  0
  -15.6939   -5.9695   -0.8522 O   0  0  0  0  0  0  0  0  0  0  0  0
  -17.9676   -5.8312   -0.9604 N   0  0  0  0  0  0  0  0  0  0  0  0
  -18.0501   -5.3702    0.3838 C   0  0  0  0  0  0  0  0  0  0  0  0
  -17.4800   -4.0548    0.6684 C   0  0  0  0  0  0  0  0  0  0  0  0
  -16.1829   -3.7677    0.9812 C   0  0  0  0  0  0  0  0  0  0  0  0
  -15.7903   -2.4592    1.2269 C   0  0  0  0  0  0  0  0  0  0  0  0
  -16.6679   -1.4227    1.1675 C   0  0  0  0  0  0  0  0  0  0  0  0
  -17.9708   -1.6952    0.8552 C   0  0  0  0  0  0  0  0  0  0  0  0
  -18.3710   -2.9802    0.6108 C   0  0  0  0  0  0  0  0  0  0  0  0
  -19.8066   -3.2343    0.2726 C   0  0  0  0  0  0  0  0  0  0  0  0
  -20.5477   -3.4058    1.4212 O   0  0  0  0  0  0  0  0  0  0  0  0
  -14.2099   -6.8876   -3.1288 C   0  0  0  0  0  0  0  0  0  0  0  0
   -8.4565   -8.6010   -4.8090 H   0  0  0  0  0  0  0  0  0  0  0  0
  -10.0444   -9.3976   -4.9138 H   0  0  0  0  0  0  0  0  0  0  0  0
   -9.2798   -8.7394   -6.3807 H   0  0  0  0  0  0  0  0  0  0  0  0
  -10.9547   -7.1594   -5.7437 H   0  0  0  0  0  0  0  0  0  0  0  0
   -9.4011   -6.4547   -5.2535 H   0  0  0  0  0  0  0  0  0  0  0  0
  -12.5316   -7.8730   -5.8212 H   0  0  0  0  0  0  0  0  0  0  0  0
  -14.7814   -7.9458   -6.7357 H   0  0  0  0  0  0  0  0  0  0  0  0
  -16.7095   -7.3430   -5.3622 H   0  0  0  0  0  0  0  0  0  0  0  0
  -18.8137   -5.9484   -1.4994 H   0  0  0  0  0  0  0  0  0  0  0  0
  -17.4479   -6.0714    0.9616 H   0  0  0  0  0  0  0  0  0  0  0  0
  -19.1047   -5.3389    0.6576 H   0  0  0  0  0  0  0  0  0  0  0  0
  -15.4496   -4.5721    1.0385 H   0  0  0  0  0  0  0  0  0  0  0  0
  -14.7483   -2.2569    1.4746 H   0  0  0  0  0  0  0  0  0  0  0  0
  -16.3415   -0.4014    1.3637 H   0  0  0  0  0  0  0  0  0  0  0  0
  -18.6956   -0.8829    0.8006 H   0  0  0  0  0  0  0  0  0  0  0  0
  -19.8727   -4.1408   -0.3290 H   0  0  0  0  0  0  0  0  0  0  0  0
  -20.2003   -2.3853   -0.2863 H   0  0  0  0  0  0  0  0  0  0  0  0
  -20.6381   -2.5636    1.8730 H   0  0  0  0  0  0  0  0  0  0  0  0
  -14.0553   -6.5825   -2.0938 H   0  0  0  0  0  0  0  0  0  0  0  0
  -18.8069   -7.0617   -2.5874 C   0  0  0  0  0  0  0  0  0  0  0  0
  -17.5735   -6.6810   -3.3775 C   0  0  0  0  0  0  0  0  0  0  0  0
  -17.6339   -6.4836   -4.5985 O   0  0  0  0  0  0  0  0  0  0  0  0
  -19.2171   -7.9873   -2.9646 H   0  0  0  0  0  0  0  0  0  0  0  0
  -18.5533   -7.1906   -1.5454 H   0  0  0  0  0  0  0  0  0  0  0  0
  -19.5541   -6.2867   -2.6726 H   0  0  0  0  0  0  0  0  0  0  0  0
  1  2  1  0
  2  3  1  0
  3  4  1  0
  4  5  2  0
  5  6  1  0
  6  7  2  0
  7  8  1  0
  8  9  2  0
  9 10  1  0
 10 11  2  0
 11 12  1  0
 12 13  1  0
 13 14  1  0
 14 15  2  0
 14 16  1  0
 16 17  1  0
 17 18  1  0
 18 19  2  0
 19 20  1  0
 20 21  2  0
 21 22  1  0
 22 23  2  0
 23 24  1  0
 24 25  1  0
 12 26  2  0
  3  7  1  0
  8 26  1  0
 18 23  1  0
  1 27  1  0
  1 28  1  0
  1 29  1  0
  2 30  1  0
  2 31  1  0
  9 32  1  0
 10 33  1  0
 11 34  1  0
 16 35  1  0
 17 36  1  0
 17 37  1  0
 19 38  1  0
 20 39  1  0
 21 40  1  0
 22 41  1  0
 24 42  1  0
 24 43  1  0
 25 44  1  0
 26 45  1  0
 46 47  1  0
 46 49  1  0
 46 50  1  0
 46 51  1  0
 47 48  2  0
 13 47  1  0
M  END
>  <CHROM.1>  (19) 
65.54951943,17.31776661,-178.12150393,66.29358976,-86.42720101,92.94566280
-178.26443940,-14.94787201,-5.71806082,-1.84865519,-0.72733613,-0.06183766
0.91603111

>  <Name>  (19) 
design_18

>  <RI>  (19) 
39991000.000000

>  <Rbt.Current_Directory>  (19) 
/pylon5/mc5pksp/smaltr/gateway_workdirs/PROCESS_93251df5-8da2-4fa9-b874-71853b29d1ad

>  <Rbt.Executable>  (19) 
rbdock ($Id: //depot/dev/client3/rdock/2013.1/src/exe/rbdock.cxx#4 $)

>  <Rbt.Library>  (19) 
libRbt.so (2013.1, Build901 2013/11/27)

>  <Rbt.Parameter_File>  (19) 
/home/smaltr/software/rDock_2013.1_src//data/scripts/dock.prm

>  <Rbt.Receptor>  (19) 
/pylon5/mc5pksp/smaltr/gateway_workdirs/PROCESS_93251df5-8da2-4fa9-b874-71853b29d1ad/output/SnD-Target-Sep02/cavity/pocket_docking.prm

>  <SCORE>  (19) 
-23.387500

>  <SCORE.INTER>  (19) 
-21.667500

>  <SCORE.INTER.CONST>  (19) 
1

>  <SCORE.INTER.POLAR>  (19) 
-2.282600

>  <SCORE.INTER.REPUL>  (19) 
0.002201

>  <SCORE.INTER.ROT>  (19) 
6

>  <SCORE.INTER.VDW>  (19) 
-25.317700

>  <SCORE.INTER.norm>  (19) 
-0.833366

>  <SCORE.INTRA>  (19) 
-1.720030

>  <SCORE.INTRA.DIHEDRAL>  (19) 
-0.068457

>  <SCORE.INTRA.DIHEDRAL.0>  (19) 
6.271440

>  <SCORE.INTRA.POLAR>  (19) 
0

>  <SCORE.INTRA.POLAR.0>  (19) 
0

>  <SCORE.INTRA.REPUL>  (19) 
-0.010613

>  <SCORE.INTRA.REPUL.0>  (19) 
0.031068

>  <SCORE.INTRA.VDW>  (19) 
-1.632730

>  <SCORE.INTRA.VDW.0>  (19) 
-0.730908

>  <SCORE.INTRA.norm>  (19) 
-0.066155

>  <SCORE.RESTR>  (19) 
0

>  <SCORE.RESTR.CAVITY>  (19) 
0

>  <SCORE.RESTR.norm>  (19) 
0

>  <SCORE.SYSTEM>  (19) 
0

>  <SCORE.SYSTEM.CONST>  (19) 
0

>  <SCORE.SYSTEM.DIHEDRAL>  (19) 
0

>  <SCORE.SYSTEM.norm>  (19) 
0

>  <SCORE.heavy>  (19) 
26

>  <SCORE.norm>  (19) 
-0.899520

>  <SMILES>  (19) 
CCn1nnnc1-c1cccc(NC(=O)NCc2ccccc2CO)c1

>  <Cycle>  (19) 
228

>  <MolWeight>  (19) 
352.398000

>  <LogP>  (19) 
2.174000

>  <QED>  (19) 
0.630513

>  <SAS>  (19) 
2.224531

$$$$
design_18
     RDKit          3D

 51 53  0  0  0  0  0  0  0  0999 V2000
   -9.4244   -8.5935   -5.3102 C   0  0  0  0  0  0  0  0  0  0  0  0
  -10.1049   -7.2664   -5.0695 C   0  0  0  0  0  0  0  0  0  0  0  0
  -10.5540   -7.2160   -3.7111 N   0  0  0  0  0  0  0  0  0  0  0  0
   -9.7218   -7.2077   -2.6445 N   0  0  0  0  0  0  0  0  0  0  0  0
  -10.4021   -7.1926   -1.5317 N   0  0  0  0  0  0  0  0  0  0  0  0
  -11.6600   -7.1906   -1.8823 N   0  0  0  0  0  0  0  0  0  0  0  0
  -11.7854   -7.2043   -3.2571 C   0  0  0  0  0  0  0  0  0  0  0  0
  -13.0799   -7.2310   -3.8985 C   0  0  0  0  0  0  0  0  0  0  0  0
  -13.3628   -7.5964   -5.1726 C   0  0  0  0  0  0  0  0  0  0  0  0
  -14.6360   -7.6401   -5.6996 C   0  0  0  0  0  0  0  0  0  0  0  0
  -15.7031   -7.3081   -4.9450 C   0  0  0  0  0  0  0  0  0  0  0  0
  -15.4955   -6.9166   -3.6125 C   0  0  0  0  0  0  0  0  0  0  0  0
  -16.6525   -6.5828   -2.8829 N   0  0  0  0  0  0  0  0  0  0  0  0
  -16.6866   -6.1347   -1.5663 C   0  0  0  0  0  0  0  0  0  0  0  0
  -15.6939   -5.9695   -0.8522 O   0  0  0  0  0  0  0  0  0  0  0  0
  -17.9676   -5.8312   -0.9604 N   0  0  0  0  0  0  0  0  0  0  0  0
  -18.0501   -5.3702    0.3838 C   0  0  0  0  0  0  0  0  0  0  0  0
  -17.4800   -4.0548    0.6684 C   0  0  0  0  0  0  0  0  0  0  0  0
  -16.1829   -3.7677    0.9812 C   0  0  0  0  0  0  0  0  0  0  0  0
  -15.7903   -2.4592    1.2269 C   0  0  0  0  0  0  0  0  0  0  0  0
  -16.6679   -1.4227    1.1675 C   0  0  0  0  0  0  0  0  0  0  0  0
  -17.9708   -1.6952    0.8552 C   0  0  0  0  0  0  0  0  0  0  0  0
  -18.3710   -2.9802    0.6108 C   0  0  0  0  0  0  0  0  0  0  0  0
  -19.8066   -3.2343    0.2726 C   0  0  0  0  0  0  0  0  0  0  0  0
  -20.5477   -3.4058    1.4212 O   0  0  0  0  0  0  0  0  0  0  0  0
  -14.2099   -6.8876   -3.1288 C   0  0  0  0  0  0  0  0  0  0  0  0
   -8.4565   -8.6010   -4.8090 H   0  0  0  0  0  0  0  0  0  0  0  0
  -10.0444   -9.3976   -4.9138 H   0  0  0  0  0  0  0  0  0  0  0  0
   -9.2798   -8.7394   -6.3807 H   0  0  0  0  0  0  0  0  0  0  0  0
  -10.9547   -7.1594   -5.7437 H   0  0  0  0  0  0  0  0  0  0  0  0
   -9.4011   -6.4547   -5.2535 H   0  0  0  0  0  0  0  0  0  0  0  0
  -12.5316   -7.8730   -5.8212 H   0  0  0  0  0  0  0  0  0  0  0  0
  -14.7814   -7.9458   -6.7357 H   0  0  0  0  0  0  0  0  0  0  0  0
  -16.7095   -7.3430   -5.3622 H   0  0  0  0  0  0  0  0  0  0  0  0
  -18.8137   -5.9484   -1.4994 H   0  0  0  0  0  0  0  0  0  0  0  0
  -17.4479   -6.0714    0.9616 H   0  0  0  0  0  0  0  0  0  0  0  0
  -19.1047   -5.3389    0.6576 H   0  0  0  0  0  0  0  0  0  0  0  0
  -15.4496   -4.5721    1.0385 H   0  0  0  0  0  0  0  0  0  0  0  0
  -14.7483   -2.2569    1.4746 H   0  0  0  0  0  0  0  0  0  0  0  0
  -16.3415   -0.4014    1.3637 H   0  0  0  0  0  0  0  0  0  0  0  0
  -18.6956   -0.8829    0.8006 H   0  0  0  0  0  0  0  0  0  0  0  0
  -19.8727   -4.1408   -0.3290 H   0  0  0  0  0  0  0  0  0  0  0  0
  -20.2003   -2.3853   -0.2863 H   0  0  0  0  0  0  0  0  0  0  0  0
  -20.6381   -2.5636    1.8730 H   0  0  0  0  0  0  0  0  0  0  0  0
  -14.0553   -6.5825   -2.0938 H   0  0  0  0  0  0  0  0  0  0  0  0
  -17.5693   -6.6806   -3.3753 C   0  0  0  0  0  0  0  0  0  0  0  0
  -18.5164   -5.5876   -2.9295 C   0  0  0  0  0  0  0  0  0  0  0  0
  -18.2353   -4.3932   -3.0955 O   0  0  0  0  0  0  0  0  0  0  0  0
  -17.9881   -7.6494   -3.1453 H   0  0  0  0  0  0  0  0  0  0  0  0
  -17.4039   -6.6145   -4.4404 H   0  0  0  0  0  0  0  0  0  0  0  0
  -19.4605   -5.8559   -2.4552 H   0  0  0  0  0  0  0  0  0  0  0  0
  1  2  1  0
  2  3  1  0
  3  4  1  0
  4  5  2  0
  5  6  1  0
  6  7  2  0
  7  8  1  0
  8  9  2  0
  9 10  1  0
 10 11  2  0
 11 12  1  0
 12 13  1  0
 13 14  1  0
 14 15  2  0
 14 16  1  0
 16 17  1  0
 17 18  1  0
 18 19  2  0
 19 20  1  0
 20 21  2  0
 21 22  1  0
 22 23  2  0
 23 24  1  0
 24 25  1  0
 12 26  2  0
  3  7  1  0
  8 26  1  0
 18 23  1  0
  1 27  1  0
  1 28  1  0
  1 29  1  0
  2 30  1  0
  2 31  1  0
  9 32  1  0
 10 33  1  0
 11 34  1  0
 16 35  1  0
 17 36  1  0
 17 37  1  0
 19 38  1  0
 20 39  1  0
 21 40  1  0
 22 41  1  0
 24 42  1  0
 24 43  1  0
 25 44  1  0
 26 45  1  0
 46 47  1  0
 46 49  1  0
 46 50  1  0
 47 48  2  0
 47 51  1  0
 13 46  1  0
M  END
>  <CHROM.1>  (20) 
65.54951943,17.31776661,-178.12150393,66.29358976,-86.42720101,92.94566280
-178.26443940,-14.94787201,-5.71806082,-1.84865519,-0.72733613,-0.06183766
0.91603111

>  <Name>  (20) 
design_18

>  <RI>  (20) 
39991000.000000

>  <Rbt.Current_Directory>  (20) 
/pylon5/mc5pksp/smaltr/gateway_workdirs/PROCESS_93251df5-8da2-4fa9-b874-71853b29d1ad

>  <Rbt.Executable>  (20) 
rbdock ($Id: //depot/dev/client3/rdock/2013.1/src/exe/rbdock.cxx#4 $)

>  <Rbt.Library>  (20) 
libRbt.so (2013.1, Build901 2013/11/27)

>  <Rbt.Parameter_File>  (20) 
/home/smaltr/software/rDock_2013.1_src//data/scripts/dock.prm

>  <Rbt.Receptor>  (20) 
/pylon5/mc5pksp/smaltr/gateway_workdirs/PROCESS_93251df5-8da2-4fa9-b874-71853b29d1ad/output/SnD-Target-Sep02/cavity/pocket_docking.prm

>  <SCORE>  (20) 
-23.387500

>  <SCORE.INTER>  (20) 
-21.667500

>  <SCORE.INTER.CONST>  (20) 
1

>  <SCORE.INTER.POLAR>  (20) 
-2.282600

>  <SCORE.INTER.REPUL>  (20) 
0.002201

>  <SCORE.INTER.ROT>  (20) 
6

>  <SCORE.INTER.VDW>  (20) 
-25.317700

>  <SCORE.INTER.norm>  (20) 
-0.833366

>  <SCORE.INTRA>  (20) 
-1.720030

>  <SCORE.INTRA.DIHEDRAL>  (20) 
-0.068457

>  <SCORE.INTRA.DIHEDRAL.0>  (20) 
6.271440

>  <SCORE.INTRA.POLAR>  (20) 
0

>  <SCORE.INTRA.POLAR.0>  (20) 
0

>  <SCORE.INTRA.REPUL>  (20) 
-0.010613

>  <SCORE.INTRA.REPUL.0>  (20) 
0.031068

>  <SCORE.INTRA.VDW>  (20) 
-1.632730

>  <SCORE.INTRA.VDW.0>  (20) 
-0.730908

>  <SCORE.INTRA.norm>  (20) 
-0.066155

>  <SCORE.RESTR>  (20) 
0

>  <SCORE.RESTR.CAVITY>  (20) 
0

>  <SCORE.RESTR.norm>  (20) 
0

>  <SCORE.SYSTEM>  (20) 
0

>  <SCORE.SYSTEM.CONST>  (20) 
0

>  <SCORE.SYSTEM.DIHEDRAL>  (20) 
0

>  <SCORE.SYSTEM.norm>  (20) 
0

>  <SCORE.heavy>  (20) 
26

>  <SCORE.norm>  (20) 
-0.899520

>  <SMILES>  (20) 
CCn1nnnc1-c1cccc(NC(=O)NCc2ccccc2CO)c1

>  <Cycle>  (20) 
228

>  <MolWeight>  (20) 
352.398000

>  <LogP>  (20) 
2.174000

>  <QED>  (20) 
0.630513

>  <SAS>  (20) 
2.224531

$$$$
design_18
     RDKit          3D

 51 53  0  0  0  0  0  0  0  0999 V2000
   -9.4244   -8.5935   -5.3102 C   0  0  0  0  0  0  0  0  0  0  0  0
  -10.1049   -7.2664   -5.0695 C   0  0  0  0  0  0  0  0  0  0  0  0
  -10.5540   -7.2160   -3.7111 N   0  0  0  0  0  0  0  0  0  0  0  0
   -9.7218   -7.2077   -2.6445 N   0  0  0  0  0  0  0  0  0  0  0  0
  -10.4021   -7.1926   -1.5317 N   0  0  0  0  0  0  0  0  0  0  0  0
  -11.6600   -7.1906   -1.8823 N   0  0  0  0  0  0  0  0  0  0  0  0
  -11.7854   -7.2043   -3.2571 C   0  0  0  0  0  0  0  0  0  0  0  0
  -13.0799   -7.2310   -3.8985 C   0  0  0  0  0  0  0  0  0  0  0  0
  -13.3628   -7.5964   -5.1726 C   0  0  0  0  0  0  0  0  0  0  0  0
  -14.6360   -7.6401   -5.6996 C   0  0  0  0  0  0  0  0  0  0  0  0
  -15.7031   -7.3081   -4.9450 C   0  0  0  0  0  0  0  0  0  0  0  0
  -15.4955   -6.9166   -3.6125 C   0  0  0  0  0  0  0  0  0  0  0  0
  -16.6525   -6.5828   -2.8829 N   0  0  0  0  0  0  0  0  0  0  0  0
  -16.6866   -6.1347   -1.5663 C   0  0  0  0  0  0  0  0  0  0  0  0
  -15.6939   -5.9695   -0.8522 O   0  0  0  0  0  0  0  0  0  0  0  0
  -17.9676   -5.8312   -0.9604 N   0  0  0  0  0  0  0  0  0  0  0  0
  -18.0501   -5.3702    0.3838 C   0  0  0  0  0  0  0  0  0  0  0  0
  -17.4800   -4.0548    0.6684 C   0  0  0  0  0  0  0  0  0  0  0  0
  -16.1829   -3.7677    0.9812 C   0  0  0  0  0  0  0  0  0  0  0  0
  -15.7903   -2.4592    1.2269 C   0  0  0  0  0  0  0  0  0  0  0  0
  -16.6679   -1.4227    1.1675 C   0  0  0  0  0  0  0  0  0  0  0  0
  -17.9708   -1.6952    0.8552 C   0  0  0  0  0  0  0  0  0  0  0  0
  -18.3710   -2.9802    0.6108 C   0  0  0  0  0  0  0  0  0  0  0  0
  -19.8066   -3.2343    0.2726 C   0  0  0  0  0  0  0  0  0  0  0  0
  -20.5477   -3.4058    1.4212 O   0  0  0  0  0  0  0  0  0  0  0  0
  -14.2099   -6.8876   -3.1288 C   0  0  0  0  0  0  0  0  0  0  0  0
   -8.4565   -8.6010   -4.8090 H   0  0  0  0  0  0  0  0  0  0  0  0
  -10.0444   -9.3976   -4.9138 H   0  0  0  0  0  0  0  0  0  0  0  0
   -9.2798   -8.7394   -6.3807 H   0  0  0  0  0  0  0  0  0  0  0  0
  -10.9547   -7.1594   -5.7437 H   0  0  0  0  0  0  0  0  0  0  0  0
   -9.4011   -6.4547   -5.2535 H   0  0  0  0  0  0  0  0  0  0  0  0
  -12.5316   -7.8730   -5.8212 H   0  0  0  0  0  0  0  0  0  0  0  0
  -14.7814   -7.9458   -6.7357 H   0  0  0  0  0  0  0  0  0  0  0  0
  -16.7095   -7.3430   -5.3622 H   0  0  0  0  0  0  0  0  0  0  0  0
  -17.5384   -6.6773   -3.3587 H   0  0  0  0  0  0  0  0  0  0  0  0
  -17.4479   -6.0714    0.9616 H   0  0  0  0  0  0  0  0  0  0  0  0
  -19.1047   -5.3389    0.6576 H   0  0  0  0  0  0  0  0  0  0  0  0
  -15.4496   -4.5721    1.0385 H   0  0  0  0  0  0  0  0  0  0  0  0
  -14.7483   -2.2569    1.4746 H   0  0  0  0  0  0  0  0  0  0  0  0
  -16.3415   -0.4014    1.3637 H   0  0  0  0  0  0  0  0  0  0  0  0
  -18.6956   -0.8829    0.8006 H   0  0  0  0  0  0  0  0  0  0  0  0
  -19.8727   -4.1408   -0.3290 H   0  0  0  0  0  0  0  0  0  0  0  0
  -20.2003   -2.3853   -0.2863 H   0  0  0  0  0  0  0  0  0  0  0  0
  -20.6381   -2.5636    1.8730 H   0  0  0  0  0  0  0  0  0  0  0  0
  -14.0553   -6.5825   -2.0938 H   0  0  0  0  0  0  0  0  0  0  0  0
  -20.1296   -6.3449   -0.8190 C   0  0  0  0  0  0  0  0  0  0  0  0
  -18.8472   -5.9530   -1.5207 C   0  0  0  0  0  0  0  0  0  0  0  0
  -18.8195   -5.7739   -2.7457 O   0  0  0  0  0  0  0  0  0  0  0  0
  -20.4946   -7.2829   -1.2115 H   0  0  0  0  0  0  0  0  0  0  0  0
  -19.9525   -6.4546    0.2409 H   0  0  0  0  0  0  0  0  0  0  0  0
  -20.8814   -5.5848   -0.9715 H   0  0  0  0  0  0  0  0  0  0  0  0
  1  2  1  0
  2  3  1  0
  3  4  1  0
  4  5  2  0
  5  6  1  0
  6  7  2  0
  7  8  1  0
  8  9  2  0
  9 10  1  0
 10 11  2  0
 11 12  1  0
 12 13  1  0
 13 14  1  0
 14 15  2  0
 14 16  1  0
 16 17  1  0
 17 18  1  0
 18 19  2  0
 19 20  1  0
 20 21  2  0
 21 22  1  0
 22 23  2  0
 23 24  1  0
 24 25  1  0
 12 26  2  0
  3  7  1  0
  8 26  1  0
 18 23  1  0
  1 27  1  0
  1 28  1  0
  1 29  1  0
  2 30  1  0
  2 31  1  0
  9 32  1  0
 10 33  1  0
 11 34  1  0
 13 35  1  0
 17 36  1  0
 17 37  1  0
 19 38  1  0
 20 39  1  0
 21 40  1  0
 22 41  1  0
 24 42  1  0
 24 43  1  0
 25 44  1  0
 26 45  1  0
 46 47  1  0
 46 49  1  0
 46 50  1  0
 46 51  1  0
 47 48  2  0
 16 47  1  0
M  END
>  <CHROM.1>  (21) 
65.54951943,17.31776661,-178.12150393,66.29358976,-86.42720101,92.94566280
-178.26443940,-14.94787201,-5.71806082,-1.84865519,-0.72733613,-0.06183766
0.91603111

>  <Name>  (21) 
design_18

>  <RI>  (21) 
39991000.000000

>  <Rbt.Current_Directory>  (21) 
/pylon5/mc5pksp/smaltr/gateway_workdirs/PROCESS_93251df5-8da2-4fa9-b874-71853b29d1ad

>  <Rbt.Executable>  (21) 
rbdock ($Id: //depot/dev/client3/rdock/2013.1/src/exe/rbdock.cxx#4 $)

>  <Rbt.Library>  (21) 
libRbt.so (2013.1, Build901 2013/11/27)

>  <Rbt.Parameter_File>  (21) 
/home/smaltr/software/rDock_2013.1_src//data/scripts/dock.prm

>  <Rbt.Receptor>  (21) 
/pylon5/mc5pksp/smaltr/gateway_workdirs/PROCESS_93251df5-8da2-4fa9-b874-71853b29d1ad/output/SnD-Target-Sep02/cavity/pocket_docking.prm

>  <SCORE>  (21) 
-23.387500

>  <SCORE.INTER>  (21) 
-21.667500

>  <SCORE.INTER.CONST>  (21) 
1

>  <SCORE.INTER.POLAR>  (21) 
-2.282600

>  <SCORE.INTER.REPUL>  (21) 
0.002201

>  <SCORE.INTER.ROT>  (21) 
6

>  <SCORE.INTER.VDW>  (21) 
-25.317700

>  <SCORE.INTER.norm>  (21) 
-0.833366

>  <SCORE.INTRA>  (21) 
-1.720030

>  <SCORE.INTRA.DIHEDRAL>  (21) 
-0.068457

>  <SCORE.INTRA.DIHEDRAL.0>  (21) 
6.271440

>  <SCORE.INTRA.POLAR>  (21) 
0

>  <SCORE.INTRA.POLAR.0>  (21) 
0

>  <SCORE.INTRA.REPUL>  (21) 
-0.010613

>  <SCORE.INTRA.REPUL.0>  (21) 
0.031068

>  <SCORE.INTRA.VDW>  (21) 
-1.632730

>  <SCORE.INTRA.VDW.0>  (21) 
-0.730908

>  <SCORE.INTRA.norm>  (21) 
-0.066155

>  <SCORE.RESTR>  (21) 
0

>  <SCORE.RESTR.CAVITY>  (21) 
0

>  <SCORE.RESTR.norm>  (21) 
0

>  <SCORE.SYSTEM>  (21) 
0

>  <SCORE.SYSTEM.CONST>  (21) 
0

>  <SCORE.SYSTEM.DIHEDRAL>  (21) 
0

>  <SCORE.SYSTEM.norm>  (21) 
0

>  <SCORE.heavy>  (21) 
26

>  <SCORE.norm>  (21) 
-0.899520

>  <SMILES>  (21) 
CCn1nnnc1-c1cccc(NC(=O)NCc2ccccc2CO)c1

>  <Cycle>  (21) 
228

>  <MolWeight>  (21) 
352.398000

>  <LogP>  (21) 
2.174000

>  <QED>  (21) 
0.630513

>  <SAS>  (21) 
2.224531

$$$$
design_18
     RDKit          3D

 51 53  0  0  0  0  0  0  0  0999 V2000
   -9.4244   -8.5935   -5.3102 C   0  0  0  0  0  0  0  0  0  0  0  0
  -10.1049   -7.2664   -5.0695 C   0  0  0  0  0  0  0  0  0  0  0  0
  -10.5540   -7.2160   -3.7111 N   0  0  0  0  0  0  0  0  0  0  0  0
   -9.7218   -7.2077   -2.6445 N   0  0  0  0  0  0  0  0  0  0  0  0
  -10.4021   -7.1926   -1.5317 N   0  0  0  0  0  0  0  0  0  0  0  0
  -11.6600   -7.1906   -1.8823 N   0  0  0  0  0  0  0  0  0  0  0  0
  -11.7854   -7.2043   -3.2571 C   0  0  0  0  0  0  0  0  0  0  0  0
  -13.0799   -7.2310   -3.8985 C   0  0  0  0  0  0  0  0  0  0  0  0
  -13.3628   -7.5964   -5.1726 C   0  0  0  0  0  0  0  0  0  0  0  0
  -14.6360   -7.6401   -5.6996 C   0  0  0  0  0  0  0  0  0  0  0  0
  -15.7031   -7.3081   -4.9450 C   0  0  0  0  0  0  0  0  0  0  0  0
  -15.4955   -6.9166   -3.6125 C   0  0  0  0  0  0  0  0  0  0  0  0
  -16.6525   -6.5828   -2.8829 N   0  0  0  0  0  0  0  0  0  0  0  0
  -16.6866   -6.1347   -1.5663 C   0  0  0  0  0  0  0  0  0  0  0  0
  -15.6939   -5.9695   -0.8522 O   0  0  0  0  0  0  0  0  0  0  0  0
  -17.9676   -5.8312   -0.9604 N   0  0  0  0  0  0  0  0  0  0  0  0
  -18.0501   -5.3702    0.3838 C   0  0  0  0  0  0  0  0  0  0  0  0
  -17.4800   -4.0548    0.6684 C   0  0  0  0  0  0  0  0  0  0  0  0
  -16.1829   -3.7677    0.9812 C   0  0  0  0  0  0  0  0  0  0  0  0
  -15.7903   -2.4592    1.2269 C   0  0  0  0  0  0  0  0  0  0  0  0
  -16.6679   -1.4227    1.1675 C   0  0  0  0  0  0  0  0  0  0  0  0
  -17.9708   -1.6952    0.8552 C   0  0  0  0  0  0  0  0  0  0  0  0
  -18.3710   -2.9802    0.6108 C   0  0  0  0  0  0  0  0  0  0  0  0
  -19.8066   -3.2343    0.2726 C   0  0  0  0  0  0  0  0  0  0  0  0
  -20.5477   -3.4058    1.4212 O   0  0  0  0  0  0  0  0  0  0  0  0
  -14.2099   -6.8876   -3.1288 C   0  0  0  0  0  0  0  0  0  0  0  0
   -8.4565   -8.6010   -4.8090 H   0  0  0  0  0  0  0  0  0  0  0  0
  -10.0444   -9.3976   -4.9138 H   0  0  0  0  0  0  0  0  0  0  0  0
   -9.2798   -8.7394   -6.3807 H   0  0  0  0  0  0  0  0  0  0  0  0
  -10.9547   -7.1594   -5.7437 H   0  0  0  0  0  0  0  0  0  0  0  0
   -9.4011   -6.4547   -5.2535 H   0  0  0  0  0  0  0  0  0  0  0  0
  -12.5316   -7.8730   -5.8212 H   0  0  0  0  0  0  0  0  0  0  0  0
  -14.7814   -7.9458   -6.7357 H   0  0  0  0  0  0  0  0  0  0  0  0
  -16.7095   -7.3430   -5.3622 H   0  0  0  0  0  0  0  0  0  0  0  0
  -17.5384   -6.6773   -3.3587 H   0  0  0  0  0  0  0  0  0  0  0  0
  -17.4479   -6.0714    0.9616 H   0  0  0  0  0  0  0  0  0  0  0  0
  -19.1047   -5.3389    0.6576 H   0  0  0  0  0  0  0  0  0  0  0  0
  -15.4496   -4.5721    1.0385 H   0  0  0  0  0  0  0  0  0  0  0  0
  -14.7483   -2.2569    1.4746 H   0  0  0  0  0  0  0  0  0  0  0  0
  -16.3415   -0.4014    1.3637 H   0  0  0  0  0  0  0  0  0  0  0  0
  -18.6956   -0.8829    0.8006 H   0  0  0  0  0  0  0  0  0  0  0  0
  -19.8727   -4.1408   -0.3290 H   0  0  0  0  0  0  0  0  0  0  0  0
  -20.2003   -2.3853   -0.2863 H   0  0  0  0  0  0  0  0  0  0  0  0
  -20.6381   -2.5636    1.8730 H   0  0  0  0  0  0  0  0  0  0  0  0
  -14.0553   -6.5825   -2.0938 H   0  0  0  0  0  0  0  0  0  0  0  0
  -18.8432   -5.9525   -1.5182 C   0  0  0  0  0  0  0  0  0  0  0  0
  -19.9825   -6.3655   -0.6116 C   0  0  0  0  0  0  0  0  0  0  0  0
  -20.3455   -5.6430    0.3261 O   0  0  0  0  0  0  0  0  0  0  0  0
  -18.6764   -6.7092   -2.2707 H   0  0  0  0  0  0  0  0  0  0  0  0
  -19.0796   -5.0189   -2.0068 H   0  0  0  0  0  0  0  0  0  0  0  0
  -20.4912   -7.3135   -0.7868 H   0  0  0  0  0  0  0  0  0  0  0  0
  1  2  1  0
  2  3  1  0
  3  4  1  0
  4  5  2  0
  5  6  1  0
  6  7  2  0
  7  8  1  0
  8  9  2  0
  9 10  1  0
 10 11  2  0
 11 12  1  0
 12 13  1  0
 13 14  1  0
 14 15  2  0
 14 16  1  0
 16 17  1  0
 17 18  1  0
 18 19  2  0
 19 20  1  0
 20 21  2  0
 21 22  1  0
 22 23  2  0
 23 24  1  0
 24 25  1  0
 12 26  2  0
  3  7  1  0
  8 26  1  0
 18 23  1  0
  1 27  1  0
  1 28  1  0
  1 29  1  0
  2 30  1  0
  2 31  1  0
  9 32  1  0
 10 33  1  0
 11 34  1  0
 13 35  1  0
 17 36  1  0
 17 37  1  0
 19 38  1  0
 20 39  1  0
 21 40  1  0
 22 41  1  0
 24 42  1  0
 24 43  1  0
 25 44  1  0
 26 45  1  0
 46 47  1  0
 46 49  1  0
 46 50  1  0
 47 48  2  0
 47 51  1  0
 16 46  1  0
M  END
>  <CHROM.1>  (22) 
65.54951943,17.31776661,-178.12150393,66.29358976,-86.42720101,92.94566280
-178.26443940,-14.94787201,-5.71806082,-1.84865519,-0.72733613,-0.06183766
0.91603111

>  <Name>  (22) 
design_18

>  <RI>  (22) 
39991000.000000

>  <Rbt.Current_Directory>  (22) 
/pylon5/mc5pksp/smaltr/gateway_workdirs/PROCESS_93251df5-8da2-4fa9-b874-71853b29d1ad

>  <Rbt.Executable>  (22) 
rbdock ($Id: //depot/dev/client3/rdock/2013.1/src/exe/rbdock.cxx#4 $)

>  <Rbt.Library>  (22) 
libRbt.so (2013.1, Build901 2013/11/27)

>  <Rbt.Parameter_File>  (22) 
/home/smaltr/software/rDock_2013.1_src//data/scripts/dock.prm

>  <Rbt.Receptor>  (22) 
/pylon5/mc5pksp/smaltr/gateway_workdirs/PROCESS_93251df5-8da2-4fa9-b874-71853b29d1ad/output/SnD-Target-Sep02/cavity/pocket_docking.prm

>  <SCORE>  (22) 
-23.387500

>  <SCORE.INTER>  (22) 
-21.667500

>  <SCORE.INTER.CONST>  (22) 
1

>  <SCORE.INTER.POLAR>  (22) 
-2.282600

>  <SCORE.INTER.REPUL>  (22) 
0.002201

>  <SCORE.INTER.ROT>  (22) 
6

>  <SCORE.INTER.VDW>  (22) 
-25.317700

>  <SCORE.INTER.norm>  (22) 
-0.833366

>  <SCORE.INTRA>  (22) 
-1.720030

>  <SCORE.INTRA.DIHEDRAL>  (22) 
-0.068457

>  <SCORE.INTRA.DIHEDRAL.0>  (22) 
6.271440

>  <SCORE.INTRA.POLAR>  (22) 
0

>  <SCORE.INTRA.POLAR.0>  (22) 
0

>  <SCORE.INTRA.REPUL>  (22) 
-0.010613

>  <SCORE.INTRA.REPUL.0>  (22) 
0.031068

>  <SCORE.INTRA.VDW>  (22) 
-1.632730

>  <SCORE.INTRA.VDW.0>  (22) 
-0.730908

>  <SCORE.INTRA.norm>  (22) 
-0.066155

>  <SCORE.RESTR>  (22) 
0

>  <SCORE.RESTR.CAVITY>  (22) 
0

>  <SCORE.RESTR.norm>  (22) 
0

>  <SCORE.SYSTEM>  (22) 
0

>  <SCORE.SYSTEM.CONST>  (22) 
0

>  <SCORE.SYSTEM.DIHEDRAL>  (22) 
0

>  <SCORE.SYSTEM.norm>  (22) 
0

>  <SCORE.heavy>  (22) 
26

>  <SCORE.norm>  (22) 
-0.899520

>  <SMILES>  (22) 
CCn1nnnc1-c1cccc(NC(=O)NCc2ccccc2CO)c1

>  <Cycle>  (22) 
228

>  <MolWeight>  (22) 
352.398000

>  <LogP>  (22) 
2.174000

>  <QED>  (22) 
0.630513

>  <SAS>  (22) 
2.224531

$$$$
design_18
     RDKit          3D

 51 53  0  0  0  0  0  0  0  0999 V2000
   -9.4244   -8.5935   -5.3102 C   0  0  0  0  0  0  0  0  0  0  0  0
  -10.1049   -7.2664   -5.0695 C   0  0  0  0  0  0  0  0  0  0  0  0
  -10.5540   -7.2160   -3.7111 N   0  0  0  0  0  0  0  0  0  0  0  0
   -9.7218   -7.2077   -2.6445 N   0  0  0  0  0  0  0  0  0  0  0  0
  -10.4021   -7.1926   -1.5317 N   0  0  0  0  0  0  0  0  0  0  0  0
  -11.6600   -7.1906   -1.8823 N   0  0  0  0  0  0  0  0  0  0  0  0
  -11.7854   -7.2043   -3.2571 C   0  0  0  0  0  0  0  0  0  0  0  0
  -13.0799   -7.2310   -3.8985 C   0  0  0  0  0  0  0  0  0  0  0  0
  -13.3628   -7.5964   -5.1726 C   0  0  0  0  0  0  0  0  0  0  0  0
  -14.6360   -7.6401   -5.6996 C   0  0  0  0  0  0  0  0  0  0  0  0
  -15.7031   -7.3081   -4.9450 C   0  0  0  0  0  0  0  0  0  0  0  0
  -15.4955   -6.9166   -3.6125 C   0  0  0  0  0  0  0  0  0  0  0  0
  -16.6525   -6.5828   -2.8829 N   0  0  0  0  0  0  0  0  0  0  0  0
  -16.6866   -6.1347   -1.5663 C   0  0  0  0  0  0  0  0  0  0  0  0
  -15.6939   -5.9695   -0.8522 O   0  0  0  0  0  0  0  0  0  0  0  0
  -17.9676   -5.8312   -0.9604 N   0  0  0  0  0  0  0  0  0  0  0  0
  -18.0501   -5.3702    0.3838 C   0  0  0  0  0  0  0  0  0  0  0  0
  -17.4800   -4.0548    0.6684 C   0  0  0  0  0  0  0  0  0  0  0  0
  -16.1829   -3.7677    0.9812 C   0  0  0  0  0  0  0  0  0  0  0  0
  -15.7903   -2.4592    1.2269 C   0  0  0  0  0  0  0  0  0  0  0  0
  -16.6679   -1.4227    1.1675 C   0  0  0  0  0  0  0  0  0  0  0  0
  -17.9708   -1.6952    0.8552 C   0  0  0  0  0  0  0  0  0  0  0  0
  -18.3710   -2.9802    0.6108 C   0  0  0  0  0  0  0  0  0  0  0  0
  -19.8066   -3.2343    0.2726 C   0  0  0  0  0  0  0  0  0  0  0  0
  -20.5477   -3.4058    1.4212 O   0  0  0  0  0  0  0  0  0  0  0  0
  -14.2099   -6.8876   -3.1288 C   0  0  0  0  0  0  0  0  0  0  0  0
   -8.4565   -8.6010   -4.8090 H   0  0  0  0  0  0  0  0  0  0  0  0
  -10.0444   -9.3976   -4.9138 H   0  0  0  0  0  0  0  0  0  0  0  0
   -9.2798   -8.7394   -6.3807 H   0  0  0  0  0  0  0  0  0  0  0  0
  -10.9547   -7.1594   -5.7437 H   0  0  0  0  0  0  0  0  0  0  0  0
   -9.4011   -6.4547   -5.2535 H   0  0  0  0  0  0  0  0  0  0  0  0
  -12.5316   -7.8730   -5.8212 H   0  0  0  0  0  0  0  0  0  0  0  0
  -14.7814   -7.9458   -6.7357 H   0  0  0  0  0  0  0  0  0  0  0  0
  -16.7095   -7.3430   -5.3622 H   0  0  0  0  0  0  0  0  0  0  0  0
  -17.5384   -6.6773   -3.3587 H   0  0  0  0  0  0  0  0  0  0  0  0
  -18.8137   -5.9484   -1.4994 H   0  0  0  0  0  0  0  0  0  0  0  0
  -17.4479   -6.0714    0.9616 H   0  0  0  0  0  0  0  0  0  0  0  0
  -19.1047   -5.3389    0.6576 H   0  0  0  0  0  0  0  0  0  0  0  0
  -15.4496   -4.5721    1.0385 H   0  0  0  0  0  0  0  0  0  0  0  0
  -14.7483   -2.2569    1.4746 H   0  0  0  0  0  0  0  0  0  0  0  0
  -16.3415   -0.4014    1.3637 H   0  0  0  0  0  0  0  0  0  0  0  0
  -18.6956   -0.8829    0.8006 H   0  0  0  0  0  0  0  0  0  0  0  0
  -20.2003   -2.3853   -0.2863 H   0  0  0  0  0  0  0  0  0  0  0  0
  -20.6381   -2.5636    1.8730 H   0  0  0  0  0  0  0  0  0  0  0  0
  -14.0553   -6.5825   -2.0938 H   0  0  0  0  0  0  0  0  0  0  0  0
  -18.7988   -4.4349   -1.3541 C   0  0  0  0  0  0  0  0  0  0  0  0
  -19.8727   -4.1408   -0.3290 C   0  0  0  0  0  0  0  0  0  0  0  0
  -20.8252   -4.9144   -0.1633 O   0  0  0  0  0  0  0  0  0  0  0  0
  -19.2359   -4.4991   -2.3401 H   0  0  0  0  0  0  0  0  0  0  0  0
  -18.0586   -3.6482   -1.3504 H   0  0  0  0  0  0  0  0  0  0  0  0
  -18.3147   -5.3723   -1.1236 H   0  0  0  0  0  0  0  0  0  0  0  0
  1  2  1  0
  2  3  1  0
  3  4  1  0
  4  5  2  0
  5  6  1  0
  6  7  2  0
  7  8  1  0
  8  9  2  0
  9 10  1  0
 10 11  2  0
 11 12  1  0
 12 13  1  0
 13 14  1  0
 14 15  2  0
 14 16  1  0
 16 17  1  0
 17 18  1  0
 18 19  2  0
 19 20  1  0
 20 21  2  0
 21 22  1  0
 22 23  2  0
 23 24  1  0
 24 25  1  0
 12 26  2  0
  3  7  1  0
  8 26  1  0
 18 23  1  0
  1 27  1  0
  1 28  1  0
  1 29  1  0
  2 30  1  0
  2 31  1  0
  9 32  1  0
 10 33  1  0
 11 34  1  0
 13 35  1  0
 16 36  1  0
 17 37  1  0
 17 38  1  0
 19 39  1  0
 20 40  1  0
 21 41  1  0
 22 42  1  0
 24 43  1  0
 25 44  1  0
 26 45  1  0
 46 47  1  0
 46 49  1  0
 46 50  1  0
 46 51  1  0
 47 48  2  0
 24 47  1  0
M  END
>  <CHROM.1>  (23) 
65.54951943,17.31776661,-178.12150393,66.29358976,-86.42720101,92.94566280
-178.26443940,-14.94787201,-5.71806082,-1.84865519,-0.72733613,-0.06183766
0.91603111

>  <Name>  (23) 
design_18

>  <RI>  (23) 
39991000.000000

>  <Rbt.Current_Directory>  (23) 
/pylon5/mc5pksp/smaltr/gateway_workdirs/PROCESS_93251df5-8da2-4fa9-b874-71853b29d1ad

>  <Rbt.Executable>  (23) 
rbdock ($Id: //depot/dev/client3/rdock/2013.1/src/exe/rbdock.cxx#4 $)

>  <Rbt.Library>  (23) 
libRbt.so (2013.1, Build901 2013/11/27)

>  <Rbt.Parameter_File>  (23) 
/home/smaltr/software/rDock_2013.1_src//data/scripts/dock.prm

>  <Rbt.Receptor>  (23) 
/pylon5/mc5pksp/smaltr/gateway_workdirs/PROCESS_93251df5-8da2-4fa9-b874-71853b29d1ad/output/SnD-Target-Sep02/cavity/pocket_docking.prm

>  <SCORE>  (23) 
-23.387500

>  <SCORE.INTER>  (23) 
-21.667500

>  <SCORE.INTER.CONST>  (23) 
1

>  <SCORE.INTER.POLAR>  (23) 
-2.282600

>  <SCORE.INTER.REPUL>  (23) 
0.002201

>  <SCORE.INTER.ROT>  (23) 
6

>  <SCORE.INTER.VDW>  (23) 
-25.317700

>  <SCORE.INTER.norm>  (23) 
-0.833366

>  <SCORE.INTRA>  (23) 
-1.720030

>  <SCORE.INTRA.DIHEDRAL>  (23) 
-0.068457

>  <SCORE.INTRA.DIHEDRAL.0>  (23) 
6.271440

>  <SCORE.INTRA.POLAR>  (23) 
0

>  <SCORE.INTRA.POLAR.0>  (23) 
0

>  <SCORE.INTRA.REPUL>  (23) 
-0.010613

>  <SCORE.INTRA.REPUL.0>  (23) 
0.031068

>  <SCORE.INTRA.VDW>  (23) 
-1.632730

>  <SCORE.INTRA.VDW.0>  (23) 
-0.730908

>  <SCORE.INTRA.norm>  (23) 
-0.066155

>  <SCORE.RESTR>  (23) 
0

>  <SCORE.RESTR.CAVITY>  (23) 
0

>  <SCORE.RESTR.norm>  (23) 
0

>  <SCORE.SYSTEM>  (23) 
0

>  <SCORE.SYSTEM.CONST>  (23) 
0

>  <SCORE.SYSTEM.DIHEDRAL>  (23) 
0

>  <SCORE.SYSTEM.norm>  (23) 
0

>  <SCORE.heavy>  (23) 
26

>  <SCORE.norm>  (23) 
-0.899520

>  <SMILES>  (23) 
CCn1nnnc1-c1cccc(NC(=O)NCc2ccccc2CO)c1

>  <Cycle>  (23) 
228

>  <MolWeight>  (23) 
352.398000

>  <LogP>  (23) 
2.174000

>  <QED>  (23) 
0.630513

>  <SAS>  (23) 
2.224531

$$$$
design_18
     RDKit          3D

 51 53  0  0  0  0  0  0  0  0999 V2000
   -9.4244   -8.5935   -5.3102 C   0  0  0  0  0  0  0  0  0  0  0  0
  -10.1049   -7.2664   -5.0695 C   0  0  0  0  0  0  0  0  0  0  0  0
  -10.5540   -7.2160   -3.7111 N   0  0  0  0  0  0  0  0  0  0  0  0
   -9.7218   -7.2077   -2.6445 N   0  0  0  0  0  0  0  0  0  0  0  0
  -10.4021   -7.1926   -1.5317 N   0  0  0  0  0  0  0  0  0  0  0  0
  -11.6600   -7.1906   -1.8823 N   0  0  0  0  0  0  0  0  0  0  0  0
  -11.7854   -7.2043   -3.2571 C   0  0  0  0  0  0  0  0  0  0  0  0
  -13.0799   -7.2310   -3.8985 C   0  0  0  0  0  0  0  0  0  0  0  0
  -13.3628   -7.5964   -5.1726 C   0  0  0  0  0  0  0  0  0  0  0  0
  -14.6360   -7.6401   -5.6996 C   0  0  0  0  0  0  0  0  0  0  0  0
  -15.7031   -7.3081   -4.9450 C   0  0  0  0  0  0  0  0  0  0  0  0
  -15.4955   -6.9166   -3.6125 C   0  0  0  0  0  0  0  0  0  0  0  0
  -16.6525   -6.5828   -2.8829 N   0  0  0  0  0  0  0  0  0  0  0  0
  -16.6866   -6.1347   -1.5663 C   0  0  0  0  0  0  0  0  0  0  0  0
  -15.6939   -5.9695   -0.8522 O   0  0  0  0  0  0  0  0  0  0  0  0
  -17.9676   -5.8312   -0.9604 N   0  0  0  0  0  0  0  0  0  0  0  0
  -18.0501   -5.3702    0.3838 C   0  0  0  0  0  0  0  0  0  0  0  0
  -17.4800   -4.0548    0.6684 C   0  0  0  0  0  0  0  0  0  0  0  0
  -16.1829   -3.7677    0.9812 C   0  0  0  0  0  0  0  0  0  0  0  0
  -15.7903   -2.4592    1.2269 C   0  0  0  0  0  0  0  0  0  0  0  0
  -16.6679   -1.4227    1.1675 C   0  0  0  0  0  0  0  0  0  0  0  0
  -17.9708   -1.6952    0.8552 C   0  0  0  0  0  0  0  0  0  0  0  0
  -18.3710   -2.9802    0.6108 C   0  0  0  0  0  0  0  0  0  0  0  0
  -19.8066   -3.2343    0.2726 C   0  0  0  0  0  0  0  0  0  0  0  0
  -20.5477   -3.4058    1.4212 O   0  0  0  0  0  0  0  0  0  0  0  0
  -14.2099   -6.8876   -3.1288 C   0  0  0  0  0  0  0  0  0  0  0  0
   -8.4565   -8.6010   -4.8090 H   0  0  0  0  0  0  0  0  0  0  0  0
  -10.0444   -9.3976   -4.9138 H   0  0  0  0  0  0  0  0  0  0  0  0
   -9.2798   -8.7394   -6.3807 H   0  0  0  0  0  0  0  0  0  0  0  0
  -10.9547   -7.1594   -5.7437 H   0  0  0  0  0  0  0  0  0  0  0  0
   -9.4011   -6.4547   -5.2535 H   0  0  0  0  0  0  0  0  0  0  0  0
  -12.5316   -7.8730   -5.8212 H   0  0  0  0  0  0  0  0  0  0  0  0
  -14.7814   -7.9458   -6.7357 H   0  0  0  0  0  0  0  0  0  0  0  0
  -16.7095   -7.3430   -5.3622 H   0  0  0  0  0  0  0  0  0  0  0  0
  -17.5384   -6.6773   -3.3587 H   0  0  0  0  0  0  0  0  0  0  0  0
  -18.8137   -5.9484   -1.4994 H   0  0  0  0  0  0  0  0  0  0  0  0
  -17.4479   -6.0714    0.9616 H   0  0  0  0  0  0  0  0  0  0  0  0
  -19.1047   -5.3389    0.6576 H   0  0  0  0  0  0  0  0  0  0  0  0
  -15.4496   -4.5721    1.0385 H   0  0  0  0  0  0  0  0  0  0  0  0
  -14.7483   -2.2569    1.4746 H   0  0  0  0  0  0  0  0  0  0  0  0
  -16.3415   -0.4014    1.3637 H   0  0  0  0  0  0  0  0  0  0  0  0
  -18.6956   -0.8829    0.8006 H   0  0  0  0  0  0  0  0  0  0  0  0
  -20.2003   -2.3853   -0.2863 H   0  0  0  0  0  0  0  0  0  0  0  0
  -20.6381   -2.5636    1.8730 H   0  0  0  0  0  0  0  0  0  0  0  0
  -14.0553   -6.5825   -2.0938 H   0  0  0  0  0  0  0  0  0  0  0  0
  -19.8724   -4.1368   -0.3264 C   0  0  0  0  0  0  0  0  0  0  0  0
  -18.5059   -4.5031   -0.8640 C   0  0  0  0  0  0  0  0  0  0  0  0
  -17.5627   -4.7430   -0.0986 O   0  0  0  0  0  0  0  0  0  0  0  0
  -20.5575   -3.9649   -1.1436 H   0  0  0  0  0  0  0  0  0  0  0  0
  -20.2547   -4.9383    0.2882 H   0  0  0  0  0  0  0  0  0  0  0  0
  -18.3497   -4.5565   -1.9415 H   0  0  0  0  0  0  0  0  0  0  0  0
  1  2  1  0
  2  3  1  0
  3  4  1  0
  4  5  2  0
  5  6  1  0
  6  7  2  0
  7  8  1  0
  8  9  2  0
  9 10  1  0
 10 11  2  0
 11 12  1  0
 12 13  1  0
 13 14  1  0
 14 15  2  0
 14 16  1  0
 16 17  1  0
 17 18  1  0
 18 19  2  0
 19 20  1  0
 20 21  2  0
 21 22  1  0
 22 23  2  0
 23 24  1  0
 24 25  1  0
 12 26  2  0
  3  7  1  0
  8 26  1  0
 18 23  1  0
  1 27  1  0
  1 28  1  0
  1 29  1  0
  2 30  1  0
  2 31  1  0
  9 32  1  0
 10 33  1  0
 11 34  1  0
 13 35  1  0
 16 36  1  0
 17 37  1  0
 17 38  1  0
 19 39  1  0
 20 40  1  0
 21 41  1  0
 22 42  1  0
 24 43  1  0
 25 44  1  0
 26 45  1  0
 46 47  1  0
 46 49  1  0
 46 50  1  0
 47 48  2  0
 47 51  1  0
 24 46  1  0
M  END
>  <CHROM.1>  (24) 
65.54951943,17.31776661,-178.12150393,66.29358976,-86.42720101,92.94566280
-178.26443940,-14.94787201,-5.71806082,-1.84865519,-0.72733613,-0.06183766
0.91603111

>  <Name>  (24) 
design_18

>  <RI>  (24) 
39991000.000000

>  <Rbt.Current_Directory>  (24) 
/pylon5/mc5pksp/smaltr/gateway_workdirs/PROCESS_93251df5-8da2-4fa9-b874-71853b29d1ad

>  <Rbt.Executable>  (24) 
rbdock ($Id: //depot/dev/client3/rdock/2013.1/src/exe/rbdock.cxx#4 $)

>  <Rbt.Library>  (24) 
libRbt.so (2013.1, Build901 2013/11/27)

>  <Rbt.Parameter_File>  (24) 
/home/smaltr/software/rDock_2013.1_src//data/scripts/dock.prm

>  <Rbt.Receptor>  (24) 
/pylon5/mc5pksp/smaltr/gateway_workdirs/PROCESS_93251df5-8da2-4fa9-b874-71853b29d1ad/output/SnD-Target-Sep02/cavity/pocket_docking.prm

>  <SCORE>  (24) 
-23.387500

>  <SCORE.INTER>  (24) 
-21.667500

>  <SCORE.INTER.CONST>  (24) 
1

>  <SCORE.INTER.POLAR>  (24) 
-2.282600

>  <SCORE.INTER.REPUL>  (24) 
0.002201

>  <SCORE.INTER.ROT>  (24) 
6

>  <SCORE.INTER.VDW>  (24) 
-25.317700

>  <SCORE.INTER.norm>  (24) 
-0.833366

>  <SCORE.INTRA>  (24) 
-1.720030

>  <SCORE.INTRA.DIHEDRAL>  (24) 
-0.068457

>  <SCORE.INTRA.DIHEDRAL.0>  (24) 
6.271440

>  <SCORE.INTRA.POLAR>  (24) 
0

>  <SCORE.INTRA.POLAR.0>  (24) 
0

>  <SCORE.INTRA.REPUL>  (24) 
-0.010613

>  <SCORE.INTRA.REPUL.0>  (24) 
0.031068

>  <SCORE.INTRA.VDW>  (24) 
-1.632730

>  <SCORE.INTRA.VDW.0>  (24) 
-0.730908

>  <SCORE.INTRA.norm>  (24) 
-0.066155

>  <SCORE.RESTR>  (24) 
0

>  <SCORE.RESTR.CAVITY>  (24) 
0

>  <SCORE.RESTR.norm>  (24) 
0

>  <SCORE.SYSTEM>  (24) 
0

>  <SCORE.SYSTEM.CONST>  (24) 
0

>  <SCORE.SYSTEM.DIHEDRAL>  (24) 
0

>  <SCORE.SYSTEM.norm>  (24) 
0

>  <SCORE.heavy>  (24) 
26

>  <SCORE.norm>  (24) 
-0.899520

>  <SMILES>  (24) 
CCn1nnnc1-c1cccc(NC(=O)NCc2ccccc2CO)c1

>  <Cycle>  (24) 
228

>  <MolWeight>  (24) 
352.398000

>  <LogP>  (24) 
2.174000

>  <QED>  (24) 
0.630513

>  <SAS>  (24) 
2.224531

$$$$
design_18
     RDKit          3D

 51 53  0  0  0  0  0  0  0  0999 V2000
   -9.4244   -8.5935   -5.3102 C   0  0  0  0  0  0  0  0  0  0  0  0
  -10.1049   -7.2664   -5.0695 C   0  0  0  0  0  0  0  0  0  0  0  0
  -10.5540   -7.2160   -3.7111 N   0  0  0  0  0  0  0  0  0  0  0  0
   -9.7218   -7.2077   -2.6445 N   0  0  0  0  0  0  0  0  0  0  0  0
  -10.4021   -7.1926   -1.5317 N   0  0  0  0  0  0  0  0  0  0  0  0
  -11.6600   -7.1906   -1.8823 N   0  0  0  0  0  0  0  0  0  0  0  0
  -11.7854   -7.2043   -3.2571 C   0  0  0  0  0  0  0  0  0  0  0  0
  -13.0799   -7.2310   -3.8985 C   0  0  0  0  0  0  0  0  0  0  0  0
  -13.3628   -7.5964   -5.1726 C   0  0  0  0  0  0  0  0  0  0  0  0
  -14.6360   -7.6401   -5.6996 C   0  0  0  0  0  0  0  0  0  0  0  0
  -15.7031   -7.3081   -4.9450 C   0  0  0  0  0  0  0  0  0  0  0  0
  -15.4955   -6.9166   -3.6125 C   0  0  0  0  0  0  0  0  0  0  0  0
  -16.6525   -6.5828   -2.8829 N   0  0  0  0  0  0  0  0  0  0  0  0
  -16.6866   -6.1347   -1.5663 C   0  0  0  0  0  0  0  0  0  0  0  0
  -15.6939   -5.9695   -0.8522 O   0  0  0  0  0  0  0  0  0  0  0  0
  -17.9676   -5.8312   -0.9604 N   0  0  0  0  0  0  0  0  0  0  0  0
  -18.0501   -5.3702    0.3838 C   0  0  0  0  0  0  0  0  0  0  0  0
  -17.4800   -4.0548    0.6684 C   0  0  0  0  0  0  0  0  0  0  0  0
  -16.1829   -3.7677    0.9812 C   0  0  0  0  0  0  0  0  0  0  0  0
  -15.7903   -2.4592    1.2269 C   0  0  0  0  0  0  0  0  0  0  0  0
  -16.6679   -1.4227    1.1675 C   0  0  0  0  0  0  0  0  0  0  0  0
  -17.9708   -1.6952    0.8552 C   0  0  0  0  0  0  0  0  0  0  0  0
  -18.3710   -2.9802    0.6108 C   0  0  0  0  0  0  0  0  0  0  0  0
  -19.8066   -3.2343    0.2726 C   0  0  0  0  0  0  0  0  0  0  0  0
  -20.5477   -3.4058    1.4212 O   0  0  0  0  0  0  0  0  0  0  0  0
  -14.2099   -6.8876   -3.1288 C   0  0  0  0  0  0  0  0  0  0  0  0
   -8.4565   -8.6010   -4.8090 H   0  0  0  0  0  0  0  0  0  0  0  0
  -10.0444   -9.3976   -4.9138 H   0  0  0  0  0  0  0  0  0  0  0  0
   -9.2798   -8.7394   -6.3807 H   0  0  0  0  0  0  0  0  0  0  0  0
  -10.9547   -7.1594   -5.7437 H   0  0  0  0  0  0  0  0  0  0  0  0
   -9.4011   -6.4547   -5.2535 H   0  0  0  0  0  0  0  0  0  0  0  0
  -12.5316   -7.8730   -5.8212 H   0  0  0  0  0  0  0  0  0  0  0  0
  -14.7814   -7.9458   -6.7357 H   0  0  0  0  0  0  0  0  0  0  0  0
  -16.7095   -7.3430   -5.3622 H   0  0  0  0  0  0  0  0  0  0  0  0
  -17.5384   -6.6773   -3.3587 H   0  0  0  0  0  0  0  0  0  0  0  0
  -18.8137   -5.9484   -1.4994 H   0  0  0  0  0  0  0  0  0  0  0  0
  -17.4479   -6.0714    0.9616 H   0  0  0  0  0  0  0  0  0  0  0  0
  -19.1047   -5.3389    0.6576 H   0  0  0  0  0  0  0  0  0  0  0  0
  -15.4496   -4.5721    1.0385 H   0  0  0  0  0  0  0  0  0  0  0  0
  -14.7483   -2.2569    1.4746 H   0  0  0  0  0  0  0  0  0  0  0  0
  -16.3415   -0.4014    1.3637 H   0  0  0  0  0  0  0  0  0  0  0  0
  -18.6956   -0.8829    0.8006 H   0  0  0  0  0  0  0  0  0  0  0  0
  -19.8727   -4.1408   -0.3290 H   0  0  0  0  0  0  0  0  0  0  0  0
  -20.6381   -2.5636    1.8730 H   0  0  0  0  0  0  0  0  0  0  0  0
  -14.0553   -6.5825   -2.0938 H   0  0  0  0  0  0  0  0  0  0  0  0
  -19.3598   -1.1353   -0.4329 C   0  0  0  0  0  0  0  0  0  0  0  0
  -20.2003   -2.3853   -0.2863 C   0  0  0  0  0  0  0  0  0  0  0  0
  -21.3284   -2.4583   -0.7916 O   0  0  0  0  0  0  0  0  0  0  0  0
  -19.8759   -0.2896   -0.0020 H   0  0  0  0  0  0  0  0  0  0  0  0
  -18.4146   -1.2635    0.0740 H   0  0  0  0  0  0  0  0  0  0  0  0
  -19.1726   -0.9364   -1.4777 H   0  0  0  0  0  0  0  0  0  0  0  0
  1  2  1  0
  2  3  1  0
  3  4  1  0
  4  5  2  0
  5  6  1  0
  6  7  2  0
  7  8  1  0
  8  9  2  0
  9 10  1  0
 10 11  2  0
 11 12  1  0
 12 13  1  0
 13 14  1  0
 14 15  2  0
 14 16  1  0
 16 17  1  0
 17 18  1  0
 18 19  2  0
 19 20  1  0
 20 21  2  0
 21 22  1  0
 22 23  2  0
 23 24  1  0
 24 25  1  0
 12 26  2  0
  3  7  1  0
  8 26  1  0
 18 23  1  0
  1 27  1  0
  1 28  1  0
  1 29  1  0
  2 30  1  0
  2 31  1  0
  9 32  1  0
 10 33  1  0
 11 34  1  0
 13 35  1  0
 16 36  1  0
 17 37  1  0
 17 38  1  0
 19 39  1  0
 20 40  1  0
 21 41  1  0
 22 42  1  0
 24 43  1  0
 25 44  1  0
 26 45  1  0
 46 47  1  0
 46 49  1  0
 46 50  1  0
 46 51  1  0
 47 48  2  0
 24 47  1  0
M  END
>  <CHROM.1>  (25) 
65.54951943,17.31776661,-178.12150393,66.29358976,-86.42720101,92.94566280
-178.26443940,-14.94787201,-5.71806082,-1.84865519,-0.72733613,-0.06183766
0.91603111

>  <Name>  (25) 
design_18

>  <RI>  (25) 
39991000.000000

>  <Rbt.Current_Directory>  (25) 
/pylon5/mc5pksp/smaltr/gateway_workdirs/PROCESS_93251df5-8da2-4fa9-b874-71853b29d1ad

>  <Rbt.Executable>  (25) 
rbdock ($Id: //depot/dev/client3/rdock/2013.1/src/exe/rbdock.cxx#4 $)

>  <Rbt.Library>  (25) 
libRbt.so (2013.1, Build901 2013/11/27)

>  <Rbt.Parameter_File>  (25) 
/home/smaltr/software/rDock_2013.1_src//data/scripts/dock.prm

>  <Rbt.Receptor>  (25) 
/pylon5/mc5pksp/smaltr/gateway_workdirs/PROCESS_93251df5-8da2-4fa9-b874-71853b29d1ad/output/SnD-Target-Sep02/cavity/pocket_docking.prm

>  <SCORE>  (25) 
-23.387500

>  <SCORE.INTER>  (25) 
-21.667500

>  <SCORE.INTER.CONST>  (25) 
1

>  <SCORE.INTER.POLAR>  (25) 
-2.282600

>  <SCORE.INTER.REPUL>  (25) 
0.002201

>  <SCORE.INTER.ROT>  (25) 
6

>  <SCORE.INTER.VDW>  (25) 
-25.317700

>  <SCORE.INTER.norm>  (25) 
-0.833366

>  <SCORE.INTRA>  (25) 
-1.720030

>  <SCORE.INTRA.DIHEDRAL>  (25) 
-0.068457

>  <SCORE.INTRA.DIHEDRAL.0>  (25) 
6.271440

>  <SCORE.INTRA.POLAR>  (25) 
0

>  <SCORE.INTRA.POLAR.0>  (25) 
0

>  <SCORE.INTRA.REPUL>  (25) 
-0.010613

>  <SCORE.INTRA.REPUL.0>  (25) 
0.031068

>  <SCORE.INTRA.VDW>  (25) 
-1.632730

>  <SCORE.INTRA.VDW.0>  (25) 
-0.730908

>  <SCORE.INTRA.norm>  (25) 
-0.066155

>  <SCORE.RESTR>  (25) 
0

>  <SCORE.RESTR.CAVITY>  (25) 
0

>  <SCORE.RESTR.norm>  (25) 
0

>  <SCORE.SYSTEM>  (25) 
0

>  <SCORE.SYSTEM.CONST>  (25) 
0

>  <SCORE.SYSTEM.DIHEDRAL>  (25) 
0

>  <SCORE.SYSTEM.norm>  (25) 
0

>  <SCORE.heavy>  (25) 
26

>  <SCORE.norm>  (25) 
-0.899520

>  <SMILES>  (25) 
CCn1nnnc1-c1cccc(NC(=O)NCc2ccccc2CO)c1

>  <Cycle>  (25) 
228

>  <MolWeight>  (25) 
352.398000

>  <LogP>  (25) 
2.174000

>  <QED>  (25) 
0.630513

>  <SAS>  (25) 
2.224531

$$$$
design_18
     RDKit          3D

 51 53  0  0  0  0  0  0  0  0999 V2000
   -9.4244   -8.5935   -5.3102 C   0  0  0  0  0  0  0  0  0  0  0  0
  -10.1049   -7.2664   -5.0695 C   0  0  0  0  0  0  0  0  0  0  0  0
  -10.5540   -7.2160   -3.7111 N   0  0  0  0  0  0  0  0  0  0  0  0
   -9.7218   -7.2077   -2.6445 N   0  0  0  0  0  0  0  0  0  0  0  0
  -10.4021   -7.1926   -1.5317 N   0  0  0  0  0  0  0  0  0  0  0  0
  -11.6600   -7.1906   -1.8823 N   0  0  0  0  0  0  0  0  0  0  0  0
  -11.7854   -7.2043   -3.2571 C   0  0  0  0  0  0  0  0  0  0  0  0
  -13.0799   -7.2310   -3.8985 C   0  0  0  0  0  0  0  0  0  0  0  0
  -13.3628   -7.5964   -5.1726 C   0  0  0  0  0  0  0  0  0  0  0  0
  -14.6360   -7.6401   -5.6996 C   0  0  0  0  0  0  0  0  0  0  0  0
  -15.7031   -7.3081   -4.9450 C   0  0  0  0  0  0  0  0  0  0  0  0
  -15.4955   -6.9166   -3.6125 C   0  0  0  0  0  0  0  0  0  0  0  0
  -16.6525   -6.5828   -2.8829 N   0  0  0  0  0  0  0  0  0  0  0  0
  -16.6866   -6.1347   -1.5663 C   0  0  0  0  0  0  0  0  0  0  0  0
  -15.6939   -5.9695   -0.8522 O   0  0  0  0  0  0  0  0  0  0  0  0
  -17.9676   -5.8312   -0.9604 N   0  0  0  0  0  0  0  0  0  0  0  0
  -18.0501   -5.3702    0.3838 C   0  0  0  0  0  0  0  0  0  0  0  0
  -17.4800   -4.0548    0.6684 C   0  0  0  0  0  0  0  0  0  0  0  0
  -16.1829   -3.7677    0.9812 C   0  0  0  0  0  0  0  0  0  0  0  0
  -15.7903   -2.4592    1.2269 C   0  0  0  0  0  0  0  0  0  0  0  0
  -16.6679   -1.4227    1.1675 C   0  0  0  0  0  0  0  0  0  0  0  0
  -17.9708   -1.6952    0.8552 C   0  0  0  0  0  0  0  0  0  0  0  0
  -18.3710   -2.9802    0.6108 C   0  0  0  0  0  0  0  0  0  0  0  0
  -19.8066   -3.2343    0.2726 C   0  0  0  0  0  0  0  0  0  0  0  0
  -20.5477   -3.4058    1.4212 O   0  0  0  0  0  0  0  0  0  0  0  0
  -14.2099   -6.8876   -3.1288 C   0  0  0  0  0  0  0  0  0  0  0  0
   -8.4565   -8.6010   -4.8090 H   0  0  0  0  0  0  0  0  0  0  0  0
  -10.0444   -9.3976   -4.9138 H   0  0  0  0  0  0  0  0  0  0  0  0
   -9.2798   -8.7394   -6.3807 H   0  0  0  0  0  0  0  0  0  0  0  0
  -10.9547   -7.1594   -5.7437 H   0  0  0  0  0  0  0  0  0  0  0  0
   -9.4011   -6.4547   -5.2535 H   0  0  0  0  0  0  0  0  0  0  0  0
  -12.5316   -7.8730   -5.8212 H   0  0  0  0  0  0  0  0  0  0  0  0
  -14.7814   -7.9458   -6.7357 H   0  0  0  0  0  0  0  0  0  0  0  0
  -16.7095   -7.3430   -5.3622 H   0  0  0  0  0  0  0  0  0  0  0  0
  -17.5384   -6.6773   -3.3587 H   0  0  0  0  0  0  0  0  0  0  0  0
  -18.8137   -5.9484   -1.4994 H   0  0  0  0  0  0  0  0  0  0  0  0
  -17.4479   -6.0714    0.9616 H   0  0  0  0  0  0  0  0  0  0  0  0
  -19.1047   -5.3389    0.6576 H   0  0  0  0  0  0  0  0  0  0  0  0
  -15.4496   -4.5721    1.0385 H   0  0  0  0  0  0  0  0  0  0  0  0
  -14.7483   -2.2569    1.4746 H   0  0  0  0  0  0  0  0  0  0  0  0
  -16.3415   -0.4014    1.3637 H   0  0  0  0  0  0  0  0  0  0  0  0
  -18.6956   -0.8829    0.8006 H   0  0  0  0  0  0  0  0  0  0  0  0
  -19.8727   -4.1408   -0.3290 H   0  0  0  0  0  0  0  0  0  0  0  0
  -20.6381   -2.5636    1.8730 H   0  0  0  0  0  0  0  0  0  0  0  0
  -14.0553   -6.5825   -2.0938 H   0  0  0  0  0  0  0  0  0  0  0  0
  -20.1986   -2.3891   -0.2838 C   0  0  0  0  0  0  0  0  0  0  0  0
  -21.5638   -2.0075    0.2462 C   0  0  0  0  0  0  0  0  0  0  0  0
  -21.7164   -1.6616    1.4254 O   0  0  0  0  0  0  0  0  0  0  0  0
  -20.2693   -2.6598   -1.3271 H   0  0  0  0  0  0  0  0  0  0  0  0
  -19.5174   -1.5571   -0.1834 H   0  0  0  0  0  0  0  0  0  0  0  0
  -22.4259   -2.0375   -0.4201 H   0  0  0  0  0  0  0  0  0  0  0  0
  1  2  1  0
  2  3  1  0
  3  4  1  0
  4  5  2  0
  5  6  1  0
  6  7  2  0
  7  8  1  0
  8  9  2  0
  9 10  1  0
 10 11  2  0
 11 12  1  0
 12 13  1  0
 13 14  1  0
 14 15  2  0
 14 16  1  0
 16 17  1  0
 17 18  1  0
 18 19  2  0
 19 20  1  0
 20 21  2  0
 21 22  1  0
 22 23  2  0
 23 24  1  0
 24 25  1  0
 12 26  2  0
  3  7  1  0
  8 26  1  0
 18 23  1  0
  1 27  1  0
  1 28  1  0
  1 29  1  0
  2 30  1  0
  2 31  1  0
  9 32  1  0
 10 33  1  0
 11 34  1  0
 13 35  1  0
 16 36  1  0
 17 37  1  0
 17 38  1  0
 19 39  1  0
 20 40  1  0
 21 41  1  0
 22 42  1  0
 24 43  1  0
 25 44  1  0
 26 45  1  0
 46 47  1  0
 46 49  1  0
 46 50  1  0
 47 48  2  0
 47 51  1  0
 24 46  1  0
M  END
>  <CHROM.1>  (26) 
65.54951943,17.31776661,-178.12150393,66.29358976,-86.42720101,92.94566280
-178.26443940,-14.94787201,-5.71806082,-1.84865519,-0.72733613,-0.06183766
0.91603111

>  <Name>  (26) 
design_18

>  <RI>  (26) 
39991000.000000

>  <Rbt.Current_Directory>  (26) 
/pylon5/mc5pksp/smaltr/gateway_workdirs/PROCESS_93251df5-8da2-4fa9-b874-71853b29d1ad

>  <Rbt.Executable>  (26) 
rbdock ($Id: //depot/dev/client3/rdock/2013.1/src/exe/rbdock.cxx#4 $)

>  <Rbt.Library>  (26) 
libRbt.so (2013.1, Build901 2013/11/27)

>  <Rbt.Parameter_File>  (26) 
/home/smaltr/software/rDock_2013.1_src//data/scripts/dock.prm

>  <Rbt.Receptor>  (26) 
/pylon5/mc5pksp/smaltr/gateway_workdirs/PROCESS_93251df5-8da2-4fa9-b874-71853b29d1ad/output/SnD-Target-Sep02/cavity/pocket_docking.prm

>  <SCORE>  (26) 
-23.387500

>  <SCORE.INTER>  (26) 
-21.667500

>  <SCORE.INTER.CONST>  (26) 
1

>  <SCORE.INTER.POLAR>  (26) 
-2.282600

>  <SCORE.INTER.REPUL>  (26) 
0.002201

>  <SCORE.INTER.ROT>  (26) 
6

>  <SCORE.INTER.VDW>  (26) 
-25.317700

>  <SCORE.INTER.norm>  (26) 
-0.833366

>  <SCORE.INTRA>  (26) 
-1.720030

>  <SCORE.INTRA.DIHEDRAL>  (26) 
-0.068457

>  <SCORE.INTRA.DIHEDRAL.0>  (26) 
6.271440

>  <SCORE.INTRA.POLAR>  (26) 
0

>  <SCORE.INTRA.POLAR.0>  (26) 
0

>  <SCORE.INTRA.REPUL>  (26) 
-0.010613

>  <SCORE.INTRA.REPUL.0>  (26) 
0.031068

>  <SCORE.INTRA.VDW>  (26) 
-1.632730

>  <SCORE.INTRA.VDW.0>  (26) 
-0.730908

>  <SCORE.INTRA.norm>  (26) 
-0.066155

>  <SCORE.RESTR>  (26) 
0

>  <SCORE.RESTR.CAVITY>  (26) 
0

>  <SCORE.RESTR.norm>  (26) 
0

>  <SCORE.SYSTEM>  (26) 
0

>  <SCORE.SYSTEM.CONST>  (26) 
0

>  <SCORE.SYSTEM.DIHEDRAL>  (26) 
0

>  <SCORE.SYSTEM.norm>  (26) 
0

>  <SCORE.heavy>  (26) 
26

>  <SCORE.norm>  (26) 
-0.899520

>  <SMILES>  (26) 
CCn1nnnc1-c1cccc(NC(=O)NCc2ccccc2CO)c1

>  <Cycle>  (26) 
228

>  <MolWeight>  (26) 
352.398000

>  <LogP>  (26) 
2.174000

>  <QED>  (26) 
0.630513

>  <SAS>  (26) 
2.224531

$$$$
design_18
     RDKit          3D

 51 53  0  0  0  0  0  0  0  0999 V2000
   -9.4244   -8.5935   -5.3102 C   0  0  0  0  0  0  0  0  0  0  0  0
  -10.1049   -7.2664   -5.0695 C   0  0  0  0  0  0  0  0  0  0  0  0
  -10.5540   -7.2160   -3.7111 N   0  0  0  0  0  0  0  0  0  0  0  0
   -9.7218   -7.2077   -2.6445 N   0  0  0  0  0  0  0  0  0  0  0  0
  -10.4021   -7.1926   -1.5317 N   0  0  0  0  0  0  0  0  0  0  0  0
  -11.6600   -7.1906   -1.8823 N   0  0  0  0  0  0  0  0  0  0  0  0
  -11.7854   -7.2043   -3.2571 C   0  0  0  0  0  0  0  0  0  0  0  0
  -13.0799   -7.2310   -3.8985 C   0  0  0  0  0  0  0  0  0  0  0  0
  -13.3628   -7.5964   -5.1726 C   0  0  0  0  0  0  0  0  0  0  0  0
  -14.6360   -7.6401   -5.6996 C   0  0  0  0  0  0  0  0  0  0  0  0
  -15.7031   -7.3081   -4.9450 C   0  0  0  0  0  0  0  0  0  0  0  0
  -15.4955   -6.9166   -3.6125 C   0  0  0  0  0  0  0  0  0  0  0  0
  -16.6525   -6.5828   -2.8829 N   0  0  0  0  0  0  0  0  0  0  0  0
  -16.6866   -6.1347   -1.5663 C   0  0  0  0  0  0  0  0  0  0  0  0
  -15.6939   -5.9695   -0.8522 O   0  0  0  0  0  0  0  0  0  0  0  0
  -17.9676   -5.8312   -0.9604 N   0  0  0  0  0  0  0  0  0  0  0  0
  -18.0501   -5.3702    0.3838 C   0  0  0  0  0  0  0  0  0  0  0  0
  -17.4800   -4.0548    0.6684 C   0  0  0  0  0  0  0  0  0  0  0  0
  -16.1829   -3.7677    0.9812 C   0  0  0  0  0  0  0  0  0  0  0  0
  -15.7903   -2.4592    1.2269 C   0  0  0  0  0  0  0  0  0  0  0  0
  -16.6679   -1.4227    1.1675 C   0  0  0  0  0  0  0  0  0  0  0  0
  -17.9708   -1.6952    0.8552 C   0  0  0  0  0  0  0  0  0  0  0  0
  -18.3710   -2.9802    0.6108 C   0  0  0  0  0  0  0  0  0  0  0  0
  -19.8066   -3.2343    0.2726 C   0  0  0  0  0  0  0  0  0  0  0  0
  -20.5477   -3.4058    1.4212 O   0  0  0  0  0  0  0  0  0  0  0  0
  -14.2099   -6.8876   -3.1288 C   0  0  0  0  0  0  0  0  0  0  0  0
   -8.4565   -8.6010   -4.8090 H   0  0  0  0  0  0  0  0  0  0  0  0
  -10.0444   -9.3976   -4.9138 H   0  0  0  0  0  0  0  0  0  0  0  0
   -9.2798   -8.7394   -6.3807 H   0  0  0  0  0  0  0  0  0  0  0  0
  -10.9547   -7.1594   -5.7437 H   0  0  0  0  0  0  0  0  0  0  0  0
   -9.4011   -6.4547   -5.2535 H   0  0  0  0  0  0  0  0  0  0  0  0
  -12.5316   -7.8730   -5.8212 H   0  0  0  0  0  0  0  0  0  0  0  0
  -14.7814   -7.9458   -6.7357 H   0  0  0  0  0  0  0  0  0  0  0  0
  -16.7095   -7.3430   -5.3622 H   0  0  0  0  0  0  0  0  0  0  0  0
  -17.5384   -6.6773   -3.3587 H   0  0  0  0  0  0  0  0  0  0  0  0
  -18.8137   -5.9484   -1.4994 H   0  0  0  0  0  0  0  0  0  0  0  0
  -19.1047   -5.3389    0.6576 H   0  0  0  0  0  0  0  0  0  0  0  0
  -15.4496   -4.5721    1.0385 H   0  0  0  0  0  0  0  0  0  0  0  0
  -14.7483   -2.2569    1.4746 H   0  0  0  0  0  0  0  0  0  0  0  0
  -16.3415   -0.4014    1.3637 H   0  0  0  0  0  0  0  0  0  0  0  0
  -18.6956   -0.8829    0.8006 H   0  0  0  0  0  0  0  0  0  0  0  0
  -19.8727   -4.1408   -0.3290 H   0  0  0  0  0  0  0  0  0  0  0  0
  -20.2003   -2.3853   -0.2863 H   0  0  0  0  0  0  0  0  0  0  0  0
  -20.6381   -2.5636    1.8730 H   0  0  0  0  0  0  0  0  0  0  0  0
  -14.0553   -6.5825   -2.0938 H   0  0  0  0  0  0  0  0  0  0  0  0
  -18.0196   -7.4264    1.3189 C   0  0  0  0  0  0  0  0  0  0  0  0
  -17.4479   -6.0714    0.9616 C   0  0  0  0  0  0  0  0  0  0  0  0
  -16.3065   -5.7472    1.3156 O   0  0  0  0  0  0  0  0  0  0  0  0
  -18.0546   -7.5420    2.3925 H   0  0  0  0  0  0  0  0  0  0  0  0
  -19.0206   -7.5212    0.9242 H   0  0  0  0  0  0  0  0  0  0  0  0
  -17.4032   -8.2091    0.9020 H   0  0  0  0  0  0  0  0  0  0  0  0
  1  2  1  0
  2  3  1  0
  3  4  1  0
  4  5  2  0
  5  6  1  0
  6  7  2  0
  7  8  1  0
  8  9  2  0
  9 10  1  0
 10 11  2  0
 11 12  1  0
 12 13  1  0
 13 14  1  0
 14 15  2  0
 14 16  1  0
 16 17  1  0
 17 18  1  0
 18 19  2  0
 19 20  1  0
 20 21  2  0
 21 22  1  0
 22 23  2  0
 23 24  1  0
 24 25  1  0
 12 26  2  0
  3  7  1  0
  8 26  1  0
 18 23  1  0
  1 27  1  0
  1 28  1  0
  1 29  1  0
  2 30  1  0
  2 31  1  0
  9 32  1  0
 10 33  1  0
 11 34  1  0
 13 35  1  0
 16 36  1  0
 17 37  1  0
 19 38  1  0
 20 39  1  0
 21 40  1  0
 22 41  1  0
 24 42  1  0
 24 43  1  0
 25 44  1  0
 26 45  1  0
 46 47  1  0
 46 49  1  0
 46 50  1  0
 46 51  1  0
 47 48  2  0
 17 47  1  0
M  END
>  <CHROM.1>  (27) 
65.54951943,17.31776661,-178.12150393,66.29358976,-86.42720101,92.94566280
-178.26443940,-14.94787201,-5.71806082,-1.84865519,-0.72733613,-0.06183766
0.91603111

>  <Name>  (27) 
design_18

>  <RI>  (27) 
39991000.000000

>  <Rbt.Current_Directory>  (27) 
/pylon5/mc5pksp/smaltr/gateway_workdirs/PROCESS_93251df5-8da2-4fa9-b874-71853b29d1ad

>  <Rbt.Executable>  (27) 
rbdock ($Id: //depot/dev/client3/rdock/2013.1/src/exe/rbdock.cxx#4 $)

>  <Rbt.Library>  (27) 
libRbt.so (2013.1, Build901 2013/11/27)

>  <Rbt.Parameter_File>  (27) 
/home/smaltr/software/rDock_2013.1_src//data/scripts/dock.prm

>  <Rbt.Receptor>  (27) 
/pylon5/mc5pksp/smaltr/gateway_workdirs/PROCESS_93251df5-8da2-4fa9-b874-71853b29d1ad/output/SnD-Target-Sep02/cavity/pocket_docking.prm

>  <SCORE>  (27) 
-23.387500

>  <SCORE.INTER>  (27) 
-21.667500

>  <SCORE.INTER.CONST>  (27) 
1

>  <SCORE.INTER.POLAR>  (27) 
-2.282600

>  <SCORE.INTER.REPUL>  (27) 
0.002201

>  <SCORE.INTER.ROT>  (27) 
6

>  <SCORE.INTER.VDW>  (27) 
-25.317700

>  <SCORE.INTER.norm>  (27) 
-0.833366

>  <SCORE.INTRA>  (27) 
-1.720030

>  <SCORE.INTRA.DIHEDRAL>  (27) 
-0.068457

>  <SCORE.INTRA.DIHEDRAL.0>  (27) 
6.271440

>  <SCORE.INTRA.POLAR>  (27) 
0

>  <SCORE.INTRA.POLAR.0>  (27) 
0

>  <SCORE.INTRA.REPUL>  (27) 
-0.010613

>  <SCORE.INTRA.REPUL.0>  (27) 
0.031068

>  <SCORE.INTRA.VDW>  (27) 
-1.632730

>  <SCORE.INTRA.VDW.0>  (27) 
-0.730908

>  <SCORE.INTRA.norm>  (27) 
-0.066155

>  <SCORE.RESTR>  (27) 
0

>  <SCORE.RESTR.CAVITY>  (27) 
0

>  <SCORE.RESTR.norm>  (27) 
0

>  <SCORE.SYSTEM>  (27) 
0

>  <SCORE.SYSTEM.CONST>  (27) 
0

>  <SCORE.SYSTEM.DIHEDRAL>  (27) 
0

>  <SCORE.SYSTEM.norm>  (27) 
0

>  <SCORE.heavy>  (27) 
26

>  <SCORE.norm>  (27) 
-0.899520

>  <SMILES>  (27) 
CCn1nnnc1-c1cccc(NC(=O)NCc2ccccc2CO)c1

>  <Cycle>  (27) 
228

>  <MolWeight>  (27) 
352.398000

>  <LogP>  (27) 
2.174000

>  <QED>  (27) 
0.630513

>  <SAS>  (27) 
2.224531

$$$$
design_18
     RDKit          3D

 51 53  0  0  0  0  0  0  0  0999 V2000
   -9.4244   -8.5935   -5.3102 C   0  0  0  0  0  0  0  0  0  0  0  0
  -10.1049   -7.2664   -5.0695 C   0  0  0  0  0  0  0  0  0  0  0  0
  -10.5540   -7.2160   -3.7111 N   0  0  0  0  0  0  0  0  0  0  0  0
   -9.7218   -7.2077   -2.6445 N   0  0  0  0  0  0  0  0  0  0  0  0
  -10.4021   -7.1926   -1.5317 N   0  0  0  0  0  0  0  0  0  0  0  0
  -11.6600   -7.1906   -1.8823 N   0  0  0  0  0  0  0  0  0  0  0  0
  -11.7854   -7.2043   -3.2571 C   0  0  0  0  0  0  0  0  0  0  0  0
  -13.0799   -7.2310   -3.8985 C   0  0  0  0  0  0  0  0  0  0  0  0
  -13.3628   -7.5964   -5.1726 C   0  0  0  0  0  0  0  0  0  0  0  0
  -14.6360   -7.6401   -5.6996 C   0  0  0  0  0  0  0  0  0  0  0  0
  -15.7031   -7.3081   -4.9450 C   0  0  0  0  0  0  0  0  0  0  0  0
  -15.4955   -6.9166   -3.6125 C   0  0  0  0  0  0  0  0  0  0  0  0
  -16.6525   -6.5828   -2.8829 N   0  0  0  0  0  0  0  0  0  0  0  0
  -16.6866   -6.1347   -1.5663 C   0  0  0  0  0  0  0  0  0  0  0  0
  -15.6939   -5.9695   -0.8522 O   0  0  0  0  0  0  0  0  0  0  0  0
  -17.9676   -5.8312   -0.9604 N   0  0  0  0  0  0  0  0  0  0  0  0
  -18.0501   -5.3702    0.3838 C   0  0  0  0  0  0  0  0  0  0  0  0
  -17.4800   -4.0548    0.6684 C   0  0  0  0  0  0  0  0  0  0  0  0
  -16.1829   -3.7677    0.9812 C   0  0  0  0  0  0  0  0  0  0  0  0
  -15.7903   -2.4592    1.2269 C   0  0  0  0  0  0  0  0  0  0  0  0
  -16.6679   -1.4227    1.1675 C   0  0  0  0  0  0  0  0  0  0  0  0
  -17.9708   -1.6952    0.8552 C   0  0  0  0  0  0  0  0  0  0  0  0
  -18.3710   -2.9802    0.6108 C   0  0  0  0  0  0  0  0  0  0  0  0
  -19.8066   -3.2343    0.2726 C   0  0  0  0  0  0  0  0  0  0  0  0
  -20.5477   -3.4058    1.4212 O   0  0  0  0  0  0  0  0  0  0  0  0
  -14.2099   -6.8876   -3.1288 C   0  0  0  0  0  0  0  0  0  0  0  0
   -8.4565   -8.6010   -4.8090 H   0  0  0  0  0  0  0  0  0  0  0  0
  -10.0444   -9.3976   -4.9138 H   0  0  0  0  0  0  0  0  0  0  0  0
   -9.2798   -8.7394   -6.3807 H   0  0  0  0  0  0  0  0  0  0  0  0
  -10.9547   -7.1594   -5.7437 H   0  0  0  0  0  0  0  0  0  0  0  0
   -9.4011   -6.4547   -5.2535 H   0  0  0  0  0  0  0  0  0  0  0  0
  -12.5316   -7.8730   -5.8212 H   0  0  0  0  0  0  0  0  0  0  0  0
  -14.7814   -7.9458   -6.7357 H   0  0  0  0  0  0  0  0  0  0  0  0
  -16.7095   -7.3430   -5.3622 H   0  0  0  0  0  0  0  0  0  0  0  0
  -17.5384   -6.6773   -3.3587 H   0  0  0  0  0  0  0  0  0  0  0  0
  -18.8137   -5.9484   -1.4994 H   0  0  0  0  0  0  0  0  0  0  0  0
  -19.1047   -5.3389    0.6576 H   0  0  0  0  0  0  0  0  0  0  0  0
  -15.4496   -4.5721    1.0385 H   0  0  0  0  0  0  0  0  0  0  0  0
  -14.7483   -2.2569    1.4746 H   0  0  0  0  0  0  0  0  0  0  0  0
  -16.3415   -0.4014    1.3637 H   0  0  0  0  0  0  0  0  0  0  0  0
  -18.6956   -0.8829    0.8006 H   0  0  0  0  0  0  0  0  0  0  0  0
  -19.8727   -4.1408   -0.3290 H   0  0  0  0  0  0  0  0  0  0  0  0
  -20.2003   -2.3853   -0.2863 H   0  0  0  0  0  0  0  0  0  0  0  0
  -20.6381   -2.5636    1.8730 H   0  0  0  0  0  0  0  0  0  0  0  0
  -14.0553   -6.5825   -2.0938 H   0  0  0  0  0  0  0  0  0  0  0  0
  -17.4506   -6.0683    0.9590 C   0  0  0  0  0  0  0  0  0  0  0  0
  -18.3179   -7.1985    1.4697 C   0  0  0  0  0  0  0  0  0  0  0  0
  -18.9316   -7.9355    0.6864 O   0  0  0  0  0  0  0  0  0  0  0  0
  -17.0018   -5.5425    1.7891 H   0  0  0  0  0  0  0  0  0  0  0  0
  -16.6668   -6.4601    0.3279 H   0  0  0  0  0  0  0  0  0  0  0  0
  -18.4037   -7.3664    2.5433 H   0  0  0  0  0  0  0  0  0  0  0  0
  1  2  1  0
  2  3  1  0
  3  4  1  0
  4  5  2  0
  5  6  1  0
  6  7  2  0
  7  8  1  0
  8  9  2  0
  9 10  1  0
 10 11  2  0
 11 12  1  0
 12 13  1  0
 13 14  1  0
 14 15  2  0
 14 16  1  0
 16 17  1  0
 17 18  1  0
 18 19  2  0
 19 20  1  0
 20 21  2  0
 21 22  1  0
 22 23  2  0
 23 24  1  0
 24 25  1  0
 12 26  2  0
  3  7  1  0
  8 26  1  0
 18 23  1  0
  1 27  1  0
  1 28  1  0
  1 29  1  0
  2 30  1  0
  2 31  1  0
  9 32  1  0
 10 33  1  0
 11 34  1  0
 13 35  1  0
 16 36  1  0
 17 37  1  0
 19 38  1  0
 20 39  1  0
 21 40  1  0
 22 41  1  0
 24 42  1  0
 24 43  1  0
 25 44  1  0
 26 45  1  0
 46 47  1  0
 46 49  1  0
 46 50  1  0
 47 48  2  0
 47 51  1  0
 17 46  1  0
M  END
>  <CHROM.1>  (28) 
65.54951943,17.31776661,-178.12150393,66.29358976,-86.42720101,92.94566280
-178.26443940,-14.94787201,-5.71806082,-1.84865519,-0.72733613,-0.06183766
0.91603111

>  <Name>  (28) 
design_18

>  <RI>  (28) 
39991000.000000

>  <Rbt.Current_Directory>  (28) 
/pylon5/mc5pksp/smaltr/gateway_workdirs/PROCESS_93251df5-8da2-4fa9-b874-71853b29d1ad

>  <Rbt.Executable>  (28) 
rbdock ($Id: //depot/dev/client3/rdock/2013.1/src/exe/rbdock.cxx#4 $)

>  <Rbt.Library>  (28) 
libRbt.so (2013.1, Build901 2013/11/27)

>  <Rbt.Parameter_File>  (28) 
/home/smaltr/software/rDock_2013.1_src//data/scripts/dock.prm

>  <Rbt.Receptor>  (28) 
/pylon5/mc5pksp/smaltr/gateway_workdirs/PROCESS_93251df5-8da2-4fa9-b874-71853b29d1ad/output/SnD-Target-Sep02/cavity/pocket_docking.prm

>  <SCORE>  (28) 
-23.387500

>  <SCORE.INTER>  (28) 
-21.667500

>  <SCORE.INTER.CONST>  (28) 
1

>  <SCORE.INTER.POLAR>  (28) 
-2.282600

>  <SCORE.INTER.REPUL>  (28) 
0.002201

>  <SCORE.INTER.ROT>  (28) 
6

>  <SCORE.INTER.VDW>  (28) 
-25.317700

>  <SCORE.INTER.norm>  (28) 
-0.833366

>  <SCORE.INTRA>  (28) 
-1.720030

>  <SCORE.INTRA.DIHEDRAL>  (28) 
-0.068457

>  <SCORE.INTRA.DIHEDRAL.0>  (28) 
6.271440

>  <SCORE.INTRA.POLAR>  (28) 
0

>  <SCORE.INTRA.POLAR.0>  (28) 
0

>  <SCORE.INTRA.REPUL>  (28) 
-0.010613

>  <SCORE.INTRA.REPUL.0>  (28) 
0.031068

>  <SCORE.INTRA.VDW>  (28) 
-1.632730

>  <SCORE.INTRA.VDW.0>  (28) 
-0.730908

>  <SCORE.INTRA.norm>  (28) 
-0.066155

>  <SCORE.RESTR>  (28) 
0

>  <SCORE.RESTR.CAVITY>  (28) 
0

>  <SCORE.RESTR.norm>  (28) 
0

>  <SCORE.SYSTEM>  (28) 
0

>  <SCORE.SYSTEM.CONST>  (28) 
0

>  <SCORE.SYSTEM.DIHEDRAL>  (28) 
0

>  <SCORE.SYSTEM.norm>  (28) 
0

>  <SCORE.heavy>  (28) 
26

>  <SCORE.norm>  (28) 
-0.899520

>  <SMILES>  (28) 
CCn1nnnc1-c1cccc(NC(=O)NCc2ccccc2CO)c1

>  <Cycle>  (28) 
228

>  <MolWeight>  (28) 
352.398000

>  <LogP>  (28) 
2.174000

>  <QED>  (28) 
0.630513

>  <SAS>  (28) 
2.224531

$$$$
design_18
     RDKit          3D

 51 53  0  0  0  0  0  0  0  0999 V2000
   -9.4244   -8.5935   -5.3102 C   0  0  0  0  0  0  0  0  0  0  0  0
  -10.1049   -7.2664   -5.0695 C   0  0  0  0  0  0  0  0  0  0  0  0
  -10.5540   -7.2160   -3.7111 N   0  0  0  0  0  0  0  0  0  0  0  0
   -9.7218   -7.2077   -2.6445 N   0  0  0  0  0  0  0  0  0  0  0  0
  -10.4021   -7.1926   -1.5317 N   0  0  0  0  0  0  0  0  0  0  0  0
  -11.6600   -7.1906   -1.8823 N   0  0  0  0  0  0  0  0  0  0  0  0
  -11.7854   -7.2043   -3.2571 C   0  0  0  0  0  0  0  0  0  0  0  0
  -13.0799   -7.2310   -3.8985 C   0  0  0  0  0  0  0  0  0  0  0  0
  -13.3628   -7.5964   -5.1726 C   0  0  0  0  0  0  0  0  0  0  0  0
  -14.6360   -7.6401   -5.6996 C   0  0  0  0  0  0  0  0  0  0  0  0
  -15.7031   -7.3081   -4.9450 C   0  0  0  0  0  0  0  0  0  0  0  0
  -15.4955   -6.9166   -3.6125 C   0  0  0  0  0  0  0  0  0  0  0  0
  -16.6525   -6.5828   -2.8829 N   0  0  0  0  0  0  0  0  0  0  0  0
  -16.6866   -6.1347   -1.5663 C   0  0  0  0  0  0  0  0  0  0  0  0
  -15.6939   -5.9695   -0.8522 O   0  0  0  0  0  0  0  0  0  0  0  0
  -17.9676   -5.8312   -0.9604 N   0  0  0  0  0  0  0  0  0  0  0  0
  -18.0501   -5.3702    0.3838 C   0  0  0  0  0  0  0  0  0  0  0  0
  -17.4800   -4.0548    0.6684 C   0  0  0  0  0  0  0  0  0  0  0  0
  -16.1829   -3.7677    0.9812 C   0  0  0  0  0  0  0  0  0  0  0  0
  -15.7903   -2.4592    1.2269 C   0  0  0  0  0  0  0  0  0  0  0  0
  -16.6679   -1.4227    1.1675 C   0  0  0  0  0  0  0  0  0  0  0  0
  -17.9708   -1.6952    0.8552 C   0  0  0  0  0  0  0  0  0  0  0  0
  -18.3710   -2.9802    0.6108 C   0  0  0  0  0  0  0  0  0  0  0  0
  -19.8066   -3.2343    0.2726 C   0  0  0  0  0  0  0  0  0  0  0  0
  -20.5477   -3.4058    1.4212 O   0  0  0  0  0  0  0  0  0  0  0  0
  -14.2099   -6.8876   -3.1288 C   0  0  0  0  0  0  0  0  0  0  0  0
   -8.4565   -8.6010   -4.8090 H   0  0  0  0  0  0  0  0  0  0  0  0
  -10.0444   -9.3976   -4.9138 H   0  0  0  0  0  0  0  0  0  0  0  0
   -9.2798   -8.7394   -6.3807 H   0  0  0  0  0  0  0  0  0  0  0  0
  -10.9547   -7.1594   -5.7437 H   0  0  0  0  0  0  0  0  0  0  0  0
   -9.4011   -6.4547   -5.2535 H   0  0  0  0  0  0  0  0  0  0  0  0
  -12.5316   -7.8730   -5.8212 H   0  0  0  0  0  0  0  0  0  0  0  0
  -14.7814   -7.9458   -6.7357 H   0  0  0  0  0  0  0  0  0  0  0  0
  -16.7095   -7.3430   -5.3622 H   0  0  0  0  0  0  0  0  0  0  0  0
  -17.5384   -6.6773   -3.3587 H   0  0  0  0  0  0  0  0  0  0  0  0
  -18.8137   -5.9484   -1.4994 H   0  0  0  0  0  0  0  0  0  0  0  0
  -17.4479   -6.0714    0.9616 H   0  0  0  0  0  0  0  0  0  0  0  0
  -15.4496   -4.5721    1.0385 H   0  0  0  0  0  0  0  0  0  0  0  0
  -14.7483   -2.2569    1.4746 H   0  0  0  0  0  0  0  0  0  0  0  0
  -16.3415   -0.4014    1.3637 H   0  0  0  0  0  0  0  0  0  0  0  0
  -18.6956   -0.8829    0.8006 H   0  0  0  0  0  0  0  0  0  0  0  0
  -19.8727   -4.1408   -0.3290 H   0  0  0  0  0  0  0  0  0  0  0  0
  -20.2003   -2.3853   -0.2863 H   0  0  0  0  0  0  0  0  0  0  0  0
  -20.6381   -2.5636    1.8730 H   0  0  0  0  0  0  0  0  0  0  0  0
  -14.0553   -6.5825   -2.0938 H   0  0  0  0  0  0  0  0  0  0  0  0
  -20.1403   -5.0243   -0.4003 C   0  0  0  0  0  0  0  0  0  0  0  0
  -19.1047   -5.3389    0.6576 C   0  0  0  0  0  0  0  0  0  0  0  0
  -19.4372   -5.5613    1.8294 O   0  0  0  0  0  0  0  0  0  0  0  0
  -20.6884   -4.1338   -0.1285 H   0  0  0  0  0  0  0  0  0  0  0  0
  -19.6580   -4.8610   -1.3529 H   0  0  0  0  0  0  0  0  0  0  0  0
  -20.8333   -5.8471   -0.4952 H   0  0  0  0  0  0  0  0  0  0  0  0
  1  2  1  0
  2  3  1  0
  3  4  1  0
  4  5  2  0
  5  6  1  0
  6  7  2  0
  7  8  1  0
  8  9  2  0
  9 10  1  0
 10 11  2  0
 11 12  1  0
 12 13  1  0
 13 14  1  0
 14 15  2  0
 14 16  1  0
 16 17  1  0
 17 18  1  0
 18 19  2  0
 19 20  1  0
 20 21  2  0
 21 22  1  0
 22 23  2  0
 23 24  1  0
 24 25  1  0
 12 26  2  0
  3  7  1  0
  8 26  1  0
 18 23  1  0
  1 27  1  0
  1 28  1  0
  1 29  1  0
  2 30  1  0
  2 31  1  0
  9 32  1  0
 10 33  1  0
 11 34  1  0
 13 35  1  0
 16 36  1  0
 17 37  1  0
 19 38  1  0
 20 39  1  0
 21 40  1  0
 22 41  1  0
 24 42  1  0
 24 43  1  0
 25 44  1  0
 26 45  1  0
 46 47  1  0
 46 49  1  0
 46 50  1  0
 46 51  1  0
 47 48  2  0
 17 47  1  0
M  END
>  <CHROM.1>  (29) 
65.54951943,17.31776661,-178.12150393,66.29358976,-86.42720101,92.94566280
-178.26443940,-14.94787201,-5.71806082,-1.84865519,-0.72733613,-0.06183766
0.91603111

>  <Name>  (29) 
design_18

>  <RI>  (29) 
39991000.000000

>  <Rbt.Current_Directory>  (29) 
/pylon5/mc5pksp/smaltr/gateway_workdirs/PROCESS_93251df5-8da2-4fa9-b874-71853b29d1ad

>  <Rbt.Executable>  (29) 
rbdock ($Id: //depot/dev/client3/rdock/2013.1/src/exe/rbdock.cxx#4 $)

>  <Rbt.Library>  (29) 
libRbt.so (2013.1, Build901 2013/11/27)

>  <Rbt.Parameter_File>  (29) 
/home/smaltr/software/rDock_2013.1_src//data/scripts/dock.prm

>  <Rbt.Receptor>  (29) 
/pylon5/mc5pksp/smaltr/gateway_workdirs/PROCESS_93251df5-8da2-4fa9-b874-71853b29d1ad/output/SnD-Target-Sep02/cavity/pocket_docking.prm

>  <SCORE>  (29) 
-23.387500

>  <SCORE.INTER>  (29) 
-21.667500

>  <SCORE.INTER.CONST>  (29) 
1

>  <SCORE.INTER.POLAR>  (29) 
-2.282600

>  <SCORE.INTER.REPUL>  (29) 
0.002201

>  <SCORE.INTER.ROT>  (29) 
6

>  <SCORE.INTER.VDW>  (29) 
-25.317700

>  <SCORE.INTER.norm>  (29) 
-0.833366

>  <SCORE.INTRA>  (29) 
-1.720030

>  <SCORE.INTRA.DIHEDRAL>  (29) 
-0.068457

>  <SCORE.INTRA.DIHEDRAL.0>  (29) 
6.271440

>  <SCORE.INTRA.POLAR>  (29) 
0

>  <SCORE.INTRA.POLAR.0>  (29) 
0

>  <SCORE.INTRA.REPUL>  (29) 
-0.010613

>  <SCORE.INTRA.REPUL.0>  (29) 
0.031068

>  <SCORE.INTRA.VDW>  (29) 
-1.632730

>  <SCORE.INTRA.VDW.0>  (29) 
-0.730908

>  <SCORE.INTRA.norm>  (29) 
-0.066155

>  <SCORE.RESTR>  (29) 
0

>  <SCORE.RESTR.CAVITY>  (29) 
0

>  <SCORE.RESTR.norm>  (29) 
0

>  <SCORE.SYSTEM>  (29) 
0

>  <SCORE.SYSTEM.CONST>  (29) 
0

>  <SCORE.SYSTEM.DIHEDRAL>  (29) 
0

>  <SCORE.SYSTEM.norm>  (29) 
0

>  <SCORE.heavy>  (29) 
26

>  <SCORE.norm>  (29) 
-0.899520

>  <SMILES>  (29) 
CCn1nnnc1-c1cccc(NC(=O)NCc2ccccc2CO)c1

>  <Cycle>  (29) 
228

>  <MolWeight>  (29) 
352.398000

>  <LogP>  (29) 
2.174000

>  <QED>  (29) 
0.630513

>  <SAS>  (29) 
2.224531

$$$$
design_18
     RDKit          3D

 51 53  0  0  0  0  0  0  0  0999 V2000
   -9.4244   -8.5935   -5.3102 C   0  0  0  0  0  0  0  0  0  0  0  0
  -10.1049   -7.2664   -5.0695 C   0  0  0  0  0  0  0  0  0  0  0  0
  -10.5540   -7.2160   -3.7111 N   0  0  0  0  0  0  0  0  0  0  0  0
   -9.7218   -7.2077   -2.6445 N   0  0  0  0  0  0  0  0  0  0  0  0
  -10.4021   -7.1926   -1.5317 N   0  0  0  0  0  0  0  0  0  0  0  0
  -11.6600   -7.1906   -1.8823 N   0  0  0  0  0  0  0  0  0  0  0  0
  -11.7854   -7.2043   -3.2571 C   0  0  0  0  0  0  0  0  0  0  0  0
  -13.0799   -7.2310   -3.8985 C   0  0  0  0  0  0  0  0  0  0  0  0
  -13.3628   -7.5964   -5.1726 C   0  0  0  0  0  0  0  0  0  0  0  0
  -14.6360   -7.6401   -5.6996 C   0  0  0  0  0  0  0  0  0  0  0  0
  -15.7031   -7.3081   -4.9450 C   0  0  0  0  0  0  0  0  0  0  0  0
  -15.4955   -6.9166   -3.6125 C   0  0  0  0  0  0  0  0  0  0  0  0
  -16.6525   -6.5828   -2.8829 N   0  0  0  0  0  0  0  0  0  0  0  0
  -16.6866   -6.1347   -1.5663 C   0  0  0  0  0  0  0  0  0  0  0  0
  -15.6939   -5.9695   -0.8522 O   0  0  0  0  0  0  0  0  0  0  0  0
  -17.9676   -5.8312   -0.9604 N   0  0  0  0  0  0  0  0  0  0  0  0
  -18.0501   -5.3702    0.3838 C   0  0  0  0  0  0  0  0  0  0  0  0
  -17.4800   -4.0548    0.6684 C   0  0  0  0  0  0  0  0  0  0  0  0
  -16.1829   -3.7677    0.9812 C   0  0  0  0  0  0  0  0  0  0  0  0
  -15.7903   -2.4592    1.2269 C   0  0  0  0  0  0  0  0  0  0  0  0
  -16.6679   -1.4227    1.1675 C   0  0  0  0  0  0  0  0  0  0  0  0
  -17.9708   -1.6952    0.8552 C   0  0  0  0  0  0  0  0  0  0  0  0
  -18.3710   -2.9802    0.6108 C   0  0  0  0  0  0  0  0  0  0  0  0
  -19.8066   -3.2343    0.2726 C   0  0  0  0  0  0  0  0  0  0  0  0
  -20.5477   -3.4058    1.4212 O   0  0  0  0  0  0  0  0  0  0  0  0
  -14.2099   -6.8876   -3.1288 C   0  0  0  0  0  0  0  0  0  0  0  0
   -8.4565   -8.6010   -4.8090 H   0  0  0  0  0  0  0  0  0  0  0  0
  -10.0444   -9.3976   -4.9138 H   0  0  0  0  0  0  0  0  0  0  0  0
   -9.2798   -8.7394   -6.3807 H   0  0  0  0  0  0  0  0  0  0  0  0
  -10.9547   -7.1594   -5.7437 H   0  0  0  0  0  0  0  0  0  0  0  0
   -9.4011   -6.4547   -5.2535 H   0  0  0  0  0  0  0  0  0  0  0  0
  -12.5316   -7.8730   -5.8212 H   0  0  0  0  0  0  0  0  0  0  0  0
  -14.7814   -7.9458   -6.7357 H   0  0  0  0  0  0  0  0  0  0  0  0
  -16.7095   -7.3430   -5.3622 H   0  0  0  0  0  0  0  0  0  0  0  0
  -17.5384   -6.6773   -3.3587 H   0  0  0  0  0  0  0  0  0  0  0  0
  -18.8137   -5.9484   -1.4994 H   0  0  0  0  0  0  0  0  0  0  0  0
  -17.4479   -6.0714    0.9616 H   0  0  0  0  0  0  0  0  0  0  0  0
  -15.4496   -4.5721    1.0385 H   0  0  0  0  0  0  0  0  0  0  0  0
  -14.7483   -2.2569    1.4746 H   0  0  0  0  0  0  0  0  0  0  0  0
  -16.3415   -0.4014    1.3637 H   0  0  0  0  0  0  0  0  0  0  0  0
  -18.6956   -0.8829    0.8006 H   0  0  0  0  0  0  0  0  0  0  0  0
  -19.8727   -4.1408   -0.3290 H   0  0  0  0  0  0  0  0  0  0  0  0
  -20.2003   -2.3853   -0.2863 H   0  0  0  0  0  0  0  0  0  0  0  0
  -20.6381   -2.5636    1.8730 H   0  0  0  0  0  0  0  0  0  0  0  0
  -14.0553   -6.5825   -2.0938 H   0  0  0  0  0  0  0  0  0  0  0  0
  -19.1000   -5.3390    0.6564 C   0  0  0  0  0  0  0  0  0  0  0  0
  -19.6666   -3.9629    0.3811 C   0  0  0  0  0  0  0  0  0  0  0  0
  -19.6598   -3.4874   -0.7622 O   0  0  0  0  0  0  0  0  0  0  0  0
  -19.1959   -5.5753    1.7061 H   0  0  0  0  0  0  0  0  0  0  0  0
  -19.6339   -6.0804    0.0805 H   0  0  0  0  0  0  0  0  0  0  0  0
  -20.0871   -3.3816    1.2017 H   0  0  0  0  0  0  0  0  0  0  0  0
  1  2  1  0
  2  3  1  0
  3  4  1  0
  4  5  2  0
  5  6  1  0
  6  7  2  0
  7  8  1  0
  8  9  2  0
  9 10  1  0
 10 11  2  0
 11 12  1  0
 12 13  1  0
 13 14  1  0
 14 15  2  0
 14 16  1  0
 16 17  1  0
 17 18  1  0
 18 19  2  0
 19 20  1  0
 20 21  2  0
 21 22  1  0
 22 23  2  0
 23 24  1  0
 24 25  1  0
 12 26  2  0
  3  7  1  0
  8 26  1  0
 18 23  1  0
  1 27  1  0
  1 28  1  0
  1 29  1  0
  2 30  1  0
  2 31  1  0
  9 32  1  0
 10 33  1  0
 11 34  1  0
 13 35  1  0
 16 36  1  0
 17 37  1  0
 19 38  1  0
 20 39  1  0
 21 40  1  0
 22 41  1  0
 24 42  1  0
 24 43  1  0
 25 44  1  0
 26 45  1  0
 46 47  1  0
 46 49  1  0
 46 50  1  0
 47 48  2  0
 47 51  1  0
 17 46  1  0
M  END
>  <CHROM.1>  (30) 
65.54951943,17.31776661,-178.12150393,66.29358976,-86.42720101,92.94566280
-178.26443940,-14.94787201,-5.71806082,-1.84865519,-0.72733613,-0.06183766
0.91603111

>  <Name>  (30) 
design_18

>  <RI>  (30) 
39991000.000000

>  <Rbt.Current_Directory>  (30) 
/pylon5/mc5pksp/smaltr/gateway_workdirs/PROCESS_93251df5-8da2-4fa9-b874-71853b29d1ad

>  <Rbt.Executable>  (30) 
rbdock ($Id: //depot/dev/client3/rdock/2013.1/src/exe/rbdock.cxx#4 $)

>  <Rbt.Library>  (30) 
libRbt.so (2013.1, Build901 2013/11/27)

>  <Rbt.Parameter_File>  (30) 
/home/smaltr/software/rDock_2013.1_src//data/scripts/dock.prm

>  <Rbt.Receptor>  (30) 
/pylon5/mc5pksp/smaltr/gateway_workdirs/PROCESS_93251df5-8da2-4fa9-b874-71853b29d1ad/output/SnD-Target-Sep02/cavity/pocket_docking.prm

>  <SCORE>  (30) 
-23.387500

>  <SCORE.INTER>  (30) 
-21.667500

>  <SCORE.INTER.CONST>  (30) 
1

>  <SCORE.INTER.POLAR>  (30) 
-2.282600

>  <SCORE.INTER.REPUL>  (30) 
0.002201

>  <SCORE.INTER.ROT>  (30) 
6

>  <SCORE.INTER.VDW>  (30) 
-25.317700

>  <SCORE.INTER.norm>  (30) 
-0.833366

>  <SCORE.INTRA>  (30) 
-1.720030

>  <SCORE.INTRA.DIHEDRAL>  (30) 
-0.068457

>  <SCORE.INTRA.DIHEDRAL.0>  (30) 
6.271440

>  <SCORE.INTRA.POLAR>  (30) 
0

>  <SCORE.INTRA.POLAR.0>  (30) 
0

>  <SCORE.INTRA.REPUL>  (30) 
-0.010613

>  <SCORE.INTRA.REPUL.0>  (30) 
0.031068

>  <SCORE.INTRA.VDW>  (30) 
-1.632730

>  <SCORE.INTRA.VDW.0>  (30) 
-0.730908

>  <SCORE.INTRA.norm>  (30) 
-0.066155

>  <SCORE.RESTR>  (30) 
0

>  <SCORE.RESTR.CAVITY>  (30) 
0

>  <SCORE.RESTR.norm>  (30) 
0

>  <SCORE.SYSTEM>  (30) 
0

>  <SCORE.SYSTEM.CONST>  (30) 
0

>  <SCORE.SYSTEM.DIHEDRAL>  (30) 
0

>  <SCORE.SYSTEM.norm>  (30) 
0

>  <SCORE.heavy>  (30) 
26

>  <SCORE.norm>  (30) 
-0.899520

>  <SMILES>  (30) 
CCn1nnnc1-c1cccc(NC(=O)NCc2ccccc2CO)c1

>  <Cycle>  (30) 
228

>  <MolWeight>  (30) 
352.398000

>  <LogP>  (30) 
2.174000

>  <QED>  (30) 
0.630513

>  <SAS>  (30) 
2.224531

$$$$
design_18
     RDKit          3D

 51 53  0  0  0  0  0  0  0  0999 V2000
   -9.4244   -8.5935   -5.3102 C   0  0  0  0  0  0  0  0  0  0  0  0
  -10.1049   -7.2664   -5.0695 C   0  0  0  0  0  0  0  0  0  0  0  0
  -10.5540   -7.2160   -3.7111 N   0  0  0  0  0  0  0  0  0  0  0  0
   -9.7218   -7.2077   -2.6445 N   0  0  0  0  0  0  0  0  0  0  0  0
  -10.4021   -7.1926   -1.5317 N   0  0  0  0  0  0  0  0  0  0  0  0
  -11.6600   -7.1906   -1.8823 N   0  0  0  0  0  0  0  0  0  0  0  0
  -11.7854   -7.2043   -3.2571 C   0  0  0  0  0  0  0  0  0  0  0  0
  -13.0799   -7.2310   -3.8985 C   0  0  0  0  0  0  0  0  0  0  0  0
  -13.3628   -7.5964   -5.1726 C   0  0  0  0  0  0  0  0  0  0  0  0
  -14.6360   -7.6401   -5.6996 C   0  0  0  0  0  0  0  0  0  0  0  0
  -15.7031   -7.3081   -4.9450 C   0  0  0  0  0  0  0  0  0  0  0  0
  -15.4955   -6.9166   -3.6125 C   0  0  0  0  0  0  0  0  0  0  0  0
  -16.6525   -6.5828   -2.8829 N   0  0  0  0  0  0  0  0  0  0  0  0
  -16.6866   -6.1347   -1.5663 C   0  0  0  0  0  0  0  0  0  0  0  0
  -15.6939   -5.9695   -0.8522 O   0  0  0  0  0  0  0  0  0  0  0  0
  -17.9676   -5.8312   -0.9604 N   0  0  0  0  0  0  0  0  0  0  0  0
  -18.0501   -5.3702    0.3838 C   0  0  0  0  0  0  0  0  0  0  0  0
  -17.4800   -4.0548    0.6684 C   0  0  0  0  0  0  0  0  0  0  0  0
  -16.1829   -3.7677    0.9812 C   0  0  0  0  0  0  0  0  0  0  0  0
  -15.7903   -2.4592    1.2269 C   0  0  0  0  0  0  0  0  0  0  0  0
  -16.6679   -1.4227    1.1675 C   0  0  0  0  0  0  0  0  0  0  0  0
  -17.9708   -1.6952    0.8552 C   0  0  0  0  0  0  0  0  0  0  0  0
  -18.3710   -2.9802    0.6108 C   0  0  0  0  0  0  0  0  0  0  0  0
  -19.8066   -3.2343    0.2726 C   0  0  0  0  0  0  0  0  0  0  0  0
  -20.5477   -3.4058    1.4212 O   0  0  0  0  0  0  0  0  0  0  0  0
  -14.2099   -6.8876   -3.1288 C   0  0  0  0  0  0  0  0  0  0  0  0
  -10.0444   -9.3976   -4.9138 H   0  0  0  0  0  0  0  0  0  0  0  0
   -9.2798   -8.7394   -6.3807 H   0  0  0  0  0  0  0  0  0  0  0  0
  -10.9547   -7.1594   -5.7437 H   0  0  0  0  0  0  0  0  0  0  0  0
   -9.4011   -6.4547   -5.2535 H   0  0  0  0  0  0  0  0  0  0  0  0
  -12.5316   -7.8730   -5.8212 H   0  0  0  0  0  0  0  0  0  0  0  0
  -14.7814   -7.9458   -6.7357 H   0  0  0  0  0  0  0  0  0  0  0  0
  -16.7095   -7.3430   -5.3622 H   0  0  0  0  0  0  0  0  0  0  0  0
  -17.5384   -6.6773   -3.3587 H   0  0  0  0  0  0  0  0  0  0  0  0
  -18.8137   -5.9484   -1.4994 H   0  0  0  0  0  0  0  0  0  0  0  0
  -17.4479   -6.0714    0.9616 H   0  0  0  0  0  0  0  0  0  0  0  0
  -19.1047   -5.3389    0.6576 H   0  0  0  0  0  0  0  0  0  0  0  0
  -15.4496   -4.5721    1.0385 H   0  0  0  0  0  0  0  0  0  0  0  0
  -14.7483   -2.2569    1.4746 H   0  0  0  0  0  0  0  0  0  0  0  0
  -16.3415   -0.4014    1.3637 H   0  0  0  0  0  0  0  0  0  0  0  0
  -18.6956   -0.8829    0.8006 H   0  0  0  0  0  0  0  0  0  0  0  0
  -19.8727   -4.1408   -0.3290 H   0  0  0  0  0  0  0  0  0  0  0  0
  -20.2003   -2.3853   -0.2863 H   0  0  0  0  0  0  0  0  0  0  0  0
  -20.6381   -2.5636    1.8730 H   0  0  0  0  0  0  0  0  0  0  0  0
  -14.0553   -6.5825   -2.0938 H   0  0  0  0  0  0  0  0  0  0  0  0
   -7.6983   -9.9036   -4.6720 C   0  0  0  0  0  0  0  0  0  0  0  0
   -8.4565   -8.6010   -4.8090 C   0  0  0  0  0  0  0  0  0  0  0  0
   -7.9940   -7.5436   -4.3604 O   0  0  0  0  0  0  0  0  0  0  0  0
   -7.5378  -10.1305   -3.6280 H   0  0  0  0  0  0  0  0  0  0  0  0
   -8.2611  -10.7082   -5.1222 H   0  0  0  0  0  0  0  0  0  0  0  0
   -6.7406   -9.8274   -5.1653 H   0  0  0  0  0  0  0  0  0  0  0  0
  1  2  1  0
  2  3  1  0
  3  4  1  0
  4  5  2  0
  5  6  1  0
  6  7  2  0
  7  8  1  0
  8  9  2  0
  9 10  1  0
 10 11  2  0
 11 12  1  0
 12 13  1  0
 13 14  1  0
 14 15  2  0
 14 16  1  0
 16 17  1  0
 17 18  1  0
 18 19  2  0
 19 20  1  0
 20 21  2  0
 21 22  1  0
 22 23  2  0
 23 24  1  0
 24 25  1  0
 12 26  2  0
  3  7  1  0
  8 26  1  0
 18 23  1  0
  1 27  1  0
  1 28  1  0
  2 29  1  0
  2 30  1  0
  9 31  1  0
 10 32  1  0
 11 33  1  0
 13 34  1  0
 16 35  1  0
 17 36  1  0
 17 37  1  0
 19 38  1  0
 20 39  1  0
 21 40  1  0
 22 41  1  0
 24 42  1  0
 24 43  1  0
 25 44  1  0
 26 45  1  0
 46 47  1  0
 46 49  1  0
 46 50  1  0
 46 51  1  0
 47 48  2  0
  1 47  1  0
M  END
>  <CHROM.1>  (31) 
65.54951943,17.31776661,-178.12150393,66.29358976,-86.42720101,92.94566280
-178.26443940,-14.94787201,-5.71806082,-1.84865519,-0.72733613,-0.06183766
0.91603111

>  <Name>  (31) 
design_18

>  <RI>  (31) 
39991000.000000

>  <Rbt.Current_Directory>  (31) 
/pylon5/mc5pksp/smaltr/gateway_workdirs/PROCESS_93251df5-8da2-4fa9-b874-71853b29d1ad

>  <Rbt.Executable>  (31) 
rbdock ($Id: //depot/dev/client3/rdock/2013.1/src/exe/rbdock.cxx#4 $)

>  <Rbt.Library>  (31) 
libRbt.so (2013.1, Build901 2013/11/27)

>  <Rbt.Parameter_File>  (31) 
/home/smaltr/software/rDock_2013.1_src//data/scripts/dock.prm

>  <Rbt.Receptor>  (31) 
/pylon5/mc5pksp/smaltr/gateway_workdirs/PROCESS_93251df5-8da2-4fa9-b874-71853b29d1ad/output/SnD-Target-Sep02/cavity/pocket_docking.prm

>  <SCORE>  (31) 
-23.387500

>  <SCORE.INTER>  (31) 
-21.667500

>  <SCORE.INTER.CONST>  (31) 
1

>  <SCORE.INTER.POLAR>  (31) 
-2.282600

>  <SCORE.INTER.REPUL>  (31) 
0.002201

>  <SCORE.INTER.ROT>  (31) 
6

>  <SCORE.INTER.VDW>  (31) 
-25.317700

>  <SCORE.INTER.norm>  (31) 
-0.833366

>  <SCORE.INTRA>  (31) 
-1.720030

>  <SCORE.INTRA.DIHEDRAL>  (31) 
-0.068457

>  <SCORE.INTRA.DIHEDRAL.0>  (31) 
6.271440

>  <SCORE.INTRA.POLAR>  (31) 
0

>  <SCORE.INTRA.POLAR.0>  (31) 
0

>  <SCORE.INTRA.REPUL>  (31) 
-0.010613

>  <SCORE.INTRA.REPUL.0>  (31) 
0.031068

>  <SCORE.INTRA.VDW>  (31) 
-1.632730

>  <SCORE.INTRA.VDW.0>  (31) 
-0.730908

>  <SCORE.INTRA.norm>  (31) 
-0.066155

>  <SCORE.RESTR>  (31) 
0

>  <SCORE.RESTR.CAVITY>  (31) 
0

>  <SCORE.RESTR.norm>  (31) 
0

>  <SCORE.SYSTEM>  (31) 
0

>  <SCORE.SYSTEM.CONST>  (31) 
0

>  <SCORE.SYSTEM.DIHEDRAL>  (31) 
0

>  <SCORE.SYSTEM.norm>  (31) 
0

>  <SCORE.heavy>  (31) 
26

>  <SCORE.norm>  (31) 
-0.899520

>  <SMILES>  (31) 
CCn1nnnc1-c1cccc(NC(=O)NCc2ccccc2CO)c1

>  <Cycle>  (31) 
228

>  <MolWeight>  (31) 
352.398000

>  <LogP>  (31) 
2.174000

>  <QED>  (31) 
0.630513

>  <SAS>  (31) 
2.224531

$$$$
design_18
     RDKit          3D

 51 53  0  0  0  0  0  0  0  0999 V2000
   -9.4244   -8.5935   -5.3102 C   0  0  0  0  0  0  0  0  0  0  0  0
  -10.1049   -7.2664   -5.0695 C   0  0  0  0  0  0  0  0  0  0  0  0
  -10.5540   -7.2160   -3.7111 N   0  0  0  0  0  0  0  0  0  0  0  0
   -9.7218   -7.2077   -2.6445 N   0  0  0  0  0  0  0  0  0  0  0  0
  -10.4021   -7.1926   -1.5317 N   0  0  0  0  0  0  0  0  0  0  0  0
  -11.6600   -7.1906   -1.8823 N   0  0  0  0  0  0  0  0  0  0  0  0
  -11.7854   -7.2043   -3.2571 C   0  0  0  0  0  0  0  0  0  0  0  0
  -13.0799   -7.2310   -3.8985 C   0  0  0  0  0  0  0  0  0  0  0  0
  -13.3628   -7.5964   -5.1726 C   0  0  0  0  0  0  0  0  0  0  0  0
  -14.6360   -7.6401   -5.6996 C   0  0  0  0  0  0  0  0  0  0  0  0
  -15.7031   -7.3081   -4.9450 C   0  0  0  0  0  0  0  0  0  0  0  0
  -15.4955   -6.9166   -3.6125 C   0  0  0  0  0  0  0  0  0  0  0  0
  -16.6525   -6.5828   -2.8829 N   0  0  0  0  0  0  0  0  0  0  0  0
  -16.6866   -6.1347   -1.5663 C   0  0  0  0  0  0  0  0  0  0  0  0
  -15.6939   -5.9695   -0.8522 O   0  0  0  0  0  0  0  0  0  0  0  0
  -17.9676   -5.8312   -0.9604 N   0  0  0  0  0  0  0  0  0  0  0  0
  -18.0501   -5.3702    0.3838 C   0  0  0  0  0  0  0  0  0  0  0  0
  -17.4800   -4.0548    0.6684 C   0  0  0  0  0  0  0  0  0  0  0  0
  -16.1829   -3.7677    0.9812 C   0  0  0  0  0  0  0  0  0  0  0  0
  -15.7903   -2.4592    1.2269 C   0  0  0  0  0  0  0  0  0  0  0  0
  -16.6679   -1.4227    1.1675 C   0  0  0  0  0  0  0  0  0  0  0  0
  -17.9708   -1.6952    0.8552 C   0  0  0  0  0  0  0  0  0  0  0  0
  -18.3710   -2.9802    0.6108 C   0  0  0  0  0  0  0  0  0  0  0  0
  -19.8066   -3.2343    0.2726 C   0  0  0  0  0  0  0  0  0  0  0  0
  -20.5477   -3.4058    1.4212 O   0  0  0  0  0  0  0  0  0  0  0  0
  -14.2099   -6.8876   -3.1288 C   0  0  0  0  0  0  0  0  0  0  0  0
  -10.0444   -9.3976   -4.9138 H   0  0  0  0  0  0  0  0  0  0  0  0
   -9.2798   -8.7394   -6.3807 H   0  0  0  0  0  0  0  0  0  0  0  0
  -10.9547   -7.1594   -5.7437 H   0  0  0  0  0  0  0  0  0  0  0  0
   -9.4011   -6.4547   -5.2535 H   0  0  0  0  0  0  0  0  0  0  0  0
  -12.5316   -7.8730   -5.8212 H   0  0  0  0  0  0  0  0  0  0  0  0
  -14.7814   -7.9458   -6.7357 H   0  0  0  0  0  0  0  0  0  0  0  0
  -16.7095   -7.3430   -5.3622 H   0  0  0  0  0  0  0  0  0  0  0  0
  -17.5384   -6.6773   -3.3587 H   0  0  0  0  0  0  0  0  0  0  0  0
  -18.8137   -5.9484   -1.4994 H   0  0  0  0  0  0  0  0  0  0  0  0
  -17.4479   -6.0714    0.9616 H   0  0  0  0  0  0  0  0  0  0  0  0
  -19.1047   -5.3389    0.6576 H   0  0  0  0  0  0  0  0  0  0  0  0
  -15.4496   -4.5721    1.0385 H   0  0  0  0  0  0  0  0  0  0  0  0
  -14.7483   -2.2569    1.4746 H   0  0  0  0  0  0  0  0  0  0  0  0
  -16.3415   -0.4014    1.3637 H   0  0  0  0  0  0  0  0  0  0  0  0
  -18.6956   -0.8829    0.8006 H   0  0  0  0  0  0  0  0  0  0  0  0
  -19.8727   -4.1408   -0.3290 H   0  0  0  0  0  0  0  0  0  0  0  0
  -20.2003   -2.3853   -0.2863 H   0  0  0  0  0  0  0  0  0  0  0  0
  -20.6381   -2.5636    1.8730 H   0  0  0  0  0  0  0  0  0  0  0  0
  -14.0553   -6.5825   -2.0938 H   0  0  0  0  0  0  0  0  0  0  0  0
   -8.4608   -8.6010   -4.8112 C   0  0  0  0  0  0  0  0  0  0  0  0
   -7.3484   -8.6958   -5.8331 C   0  0  0  0  0  0  0  0  0  0  0  0
   -7.2063   -7.8268   -6.7037 O   0  0  0  0  0  0  0  0  0  0  0  0
   -8.4205   -9.4473   -4.1412 H   0  0  0  0  0  0  0  0  0  0  0  0
   -8.3572   -7.6933   -4.2354 H   0  0  0  0  0  0  0  0  0  0  0  0
   -6.6619   -9.5419   -5.8022 H   0  0  0  0  0  0  0  0  0  0  0  0
  1  2  1  0
  2  3  1  0
  3  4  1  0
  4  5  2  0
  5  6  1  0
  6  7  2  0
  7  8  1  0
  8  9  2  0
  9 10  1  0
 10 11  2  0
 11 12  1  0
 12 13  1  0
 13 14  1  0
 14 15  2  0
 14 16  1  0
 16 17  1  0
 17 18  1  0
 18 19  2  0
 19 20  1  0
 20 21  2  0
 21 22  1  0
 22 23  2  0
 23 24  1  0
 24 25  1  0
 12 26  2  0
  3  7  1  0
  8 26  1  0
 18 23  1  0
  1 27  1  0
  1 28  1  0
  2 29  1  0
  2 30  1  0
  9 31  1  0
 10 32  1  0
 11 33  1  0
 13 34  1  0
 16 35  1  0
 17 36  1  0
 17 37  1  0
 19 38  1  0
 20 39  1  0
 21 40  1  0
 22 41  1  0
 24 42  1  0
 24 43  1  0
 25 44  1  0
 26 45  1  0
 46 47  1  0
 46 49  1  0
 46 50  1  0
 47 48  2  0
 47 51  1  0
  1 46  1  0
M  END
>  <CHROM.1>  (32) 
65.54951943,17.31776661,-178.12150393,66.29358976,-86.42720101,92.94566280
-178.26443940,-14.94787201,-5.71806082,-1.84865519,-0.72733613,-0.06183766
0.91603111

>  <Name>  (32) 
design_18

>  <RI>  (32) 
39991000.000000

>  <Rbt.Current_Directory>  (32) 
/pylon5/mc5pksp/smaltr/gateway_workdirs/PROCESS_93251df5-8da2-4fa9-b874-71853b29d1ad

>  <Rbt.Executable>  (32) 
rbdock ($Id: //depot/dev/client3/rdock/2013.1/src/exe/rbdock.cxx#4 $)

>  <Rbt.Library>  (32) 
libRbt.so (2013.1, Build901 2013/11/27)

>  <Rbt.Parameter_File>  (32) 
/home/smaltr/software/rDock_2013.1_src//data/scripts/dock.prm

>  <Rbt.Receptor>  (32) 
/pylon5/mc5pksp/smaltr/gateway_workdirs/PROCESS_93251df5-8da2-4fa9-b874-71853b29d1ad/output/SnD-Target-Sep02/cavity/pocket_docking.prm

>  <SCORE>  (32) 
-23.387500

>  <SCORE.INTER>  (32) 
-21.667500

>  <SCORE.INTER.CONST>  (32) 
1

>  <SCORE.INTER.POLAR>  (32) 
-2.282600

>  <SCORE.INTER.REPUL>  (32) 
0.002201

>  <SCORE.INTER.ROT>  (32) 
6

>  <SCORE.INTER.VDW>  (32) 
-25.317700

>  <SCORE.INTER.norm>  (32) 
-0.833366

>  <SCORE.INTRA>  (32) 
-1.720030

>  <SCORE.INTRA.DIHEDRAL>  (32) 
-0.068457

>  <SCORE.INTRA.DIHEDRAL.0>  (32) 
6.271440

>  <SCORE.INTRA.POLAR>  (32) 
0

>  <SCORE.INTRA.POLAR.0>  (32) 
0

>  <SCORE.INTRA.REPUL>  (32) 
-0.010613

>  <SCORE.INTRA.REPUL.0>  (32) 
0.031068

>  <SCORE.INTRA.VDW>  (32) 
-1.632730

>  <SCORE.INTRA.VDW.0>  (32) 
-0.730908

>  <SCORE.INTRA.norm>  (32) 
-0.066155

>  <SCORE.RESTR>  (32) 
0

>  <SCORE.RESTR.CAVITY>  (32) 
0

>  <SCORE.RESTR.norm>  (32) 
0

>  <SCORE.SYSTEM>  (32) 
0

>  <SCORE.SYSTEM.CONST>  (32) 
0

>  <SCORE.SYSTEM.DIHEDRAL>  (32) 
0

>  <SCORE.SYSTEM.norm>  (32) 
0

>  <SCORE.heavy>  (32) 
26

>  <SCORE.norm>  (32) 
-0.899520

>  <SMILES>  (32) 
CCn1nnnc1-c1cccc(NC(=O)NCc2ccccc2CO)c1

>  <Cycle>  (32) 
228

>  <MolWeight>  (32) 
352.398000

>  <LogP>  (32) 
2.174000

>  <QED>  (32) 
0.630513

>  <SAS>  (32) 
2.224531

$$$$
design_18
     RDKit          3D

 51 53  0  0  0  0  0  0  0  0999 V2000
   -9.4244   -8.5935   -5.3102 C   0  0  0  0  0  0  0  0  0  0  0  0
  -10.1049   -7.2664   -5.0695 C   0  0  0  0  0  0  0  0  0  0  0  0
  -10.5540   -7.2160   -3.7111 N   0  0  0  0  0  0  0  0  0  0  0  0
   -9.7218   -7.2077   -2.6445 N   0  0  0  0  0  0  0  0  0  0  0  0
  -10.4021   -7.1926   -1.5317 N   0  0  0  0  0  0  0  0  0  0  0  0
  -11.6600   -7.1906   -1.8823 N   0  0  0  0  0  0  0  0  0  0  0  0
  -11.7854   -7.2043   -3.2571 C   0  0  0  0  0  0  0  0  0  0  0  0
  -13.0799   -7.2310   -3.8985 C   0  0  0  0  0  0  0  0  0  0  0  0
  -13.3628   -7.5964   -5.1726 C   0  0  0  0  0  0  0  0  0  0  0  0
  -14.6360   -7.6401   -5.6996 C   0  0  0  0  0  0  0  0  0  0  0  0
  -15.7031   -7.3081   -4.9450 C   0  0  0  0  0  0  0  0  0  0  0  0
  -15.4955   -6.9166   -3.6125 C   0  0  0  0  0  0  0  0  0  0  0  0
  -16.6525   -6.5828   -2.8829 N   0  0  0  0  0  0  0  0  0  0  0  0
  -16.6866   -6.1347   -1.5663 C   0  0  0  0  0  0  0  0  0  0  0  0
  -15.6939   -5.9695   -0.8522 O   0  0  0  0  0  0  0  0  0  0  0  0
  -17.9676   -5.8312   -0.9604 N   0  0  0  0  0  0  0  0  0  0  0  0
  -18.0501   -5.3702    0.3838 C   0  0  0  0  0  0  0  0  0  0  0  0
  -17.4800   -4.0548    0.6684 C   0  0  0  0  0  0  0  0  0  0  0  0
  -16.1829   -3.7677    0.9812 C   0  0  0  0  0  0  0  0  0  0  0  0
  -15.7903   -2.4592    1.2269 C   0  0  0  0  0  0  0  0  0  0  0  0
  -16.6679   -1.4227    1.1675 C   0  0  0  0  0  0  0  0  0  0  0  0
  -17.9708   -1.6952    0.8552 C   0  0  0  0  0  0  0  0  0  0  0  0
  -18.3710   -2.9802    0.6108 C   0  0  0  0  0  0  0  0  0  0  0  0
  -19.8066   -3.2343    0.2726 C   0  0  0  0  0  0  0  0  0  0  0  0
  -20.5477   -3.4058    1.4212 O   0  0  0  0  0  0  0  0  0  0  0  0
  -14.2099   -6.8876   -3.1288 C   0  0  0  0  0  0  0  0  0  0  0  0
   -8.4565   -8.6010   -4.8090 H   0  0  0  0  0  0  0  0  0  0  0  0
   -9.2798   -8.7394   -6.3807 H   0  0  0  0  0  0  0  0  0  0  0  0
  -10.9547   -7.1594   -5.7437 H   0  0  0  0  0  0  0  0  0  0  0  0
   -9.4011   -6.4547   -5.2535 H   0  0  0  0  0  0  0  0  0  0  0  0
  -12.5316   -7.8730   -5.8212 H   0  0  0  0  0  0  0  0  0  0  0  0
  -14.7814   -7.9458   -6.7357 H   0  0  0  0  0  0  0  0  0  0  0  0
  -16.7095   -7.3430   -5.3622 H   0  0  0  0  0  0  0  0  0  0  0  0
  -17.5384   -6.6773   -3.3587 H   0  0  0  0  0  0  0  0  0  0  0  0
  -18.8137   -5.9484   -1.4994 H   0  0  0  0  0  0  0  0  0  0  0  0
  -17.4479   -6.0714    0.9616 H   0  0  0  0  0  0  0  0  0  0  0  0
  -19.1047   -5.3389    0.6576 H   0  0  0  0  0  0  0  0  0  0  0  0
  -15.4496   -4.5721    1.0385 H   0  0  0  0  0  0  0  0  0  0  0  0
  -14.7483   -2.2569    1.4746 H   0  0  0  0  0  0  0  0  0  0  0  0
  -16.3415   -0.4014    1.3637 H   0  0  0  0  0  0  0  0  0  0  0  0
  -18.6956   -0.8829    0.8006 H   0  0  0  0  0  0  0  0  0  0  0  0
  -19.8727   -4.1408   -0.3290 H   0  0  0  0  0  0  0  0  0  0  0  0
  -20.2003   -2.3853   -0.2863 H   0  0  0  0  0  0  0  0  0  0  0  0
  -20.6381   -2.5636    1.8730 H   0  0  0  0  0  0  0  0  0  0  0  0
  -14.0553   -6.5825   -2.0938 H   0  0  0  0  0  0  0  0  0  0  0  0
   -9.9571   -9.7510   -3.4448 C   0  0  0  0  0  0  0  0  0  0  0  0
  -10.0444   -9.3976   -4.9138 C   0  0  0  0  0  0  0  0  0  0  0  0
  -10.8095  -10.0080   -5.6722 O   0  0  0  0  0  0  0  0  0  0  0  0
   -9.6467  -10.7794   -3.3293 H   0  0  0  0  0  0  0  0  0  0  0  0
   -9.2389   -9.1116   -2.9527 H   0  0  0  0  0  0  0  0  0  0  0  0
  -10.9209   -9.6209   -2.9755 H   0  0  0  0  0  0  0  0  0  0  0  0
  1  2  1  0
  2  3  1  0
  3  4  1  0
  4  5  2  0
  5  6  1  0
  6  7  2  0
  7  8  1  0
  8  9  2  0
  9 10  1  0
 10 11  2  0
 11 12  1  0
 12 13  1  0
 13 14  1  0
 14 15  2  0
 14 16  1  0
 16 17  1  0
 17 18  1  0
 18 19  2  0
 19 20  1  0
 20 21  2  0
 21 22  1  0
 22 23  2  0
 23 24  1  0
 24 25  1  0
 12 26  2  0
  3  7  1  0
  8 26  1  0
 18 23  1  0
  1 27  1  0
  1 28  1  0
  2 29  1  0
  2 30  1  0
  9 31  1  0
 10 32  1  0
 11 33  1  0
 13 34  1  0
 16 35  1  0
 17 36  1  0
 17 37  1  0
 19 38  1  0
 20 39  1  0
 21 40  1  0
 22 41  1  0
 24 42  1  0
 24 43  1  0
 25 44  1  0
 26 45  1  0
 46 47  1  0
 46 49  1  0
 46 50  1  0
 46 51  1  0
 47 48  2  0
  1 47  1  0
M  END
>  <CHROM.1>  (33) 
65.54951943,17.31776661,-178.12150393,66.29358976,-86.42720101,92.94566280
-178.26443940,-14.94787201,-5.71806082,-1.84865519,-0.72733613,-0.06183766
0.91603111

>  <Name>  (33) 
design_18

>  <RI>  (33) 
39991000.000000

>  <Rbt.Current_Directory>  (33) 
/pylon5/mc5pksp/smaltr/gateway_workdirs/PROCESS_93251df5-8da2-4fa9-b874-71853b29d1ad

>  <Rbt.Executable>  (33) 
rbdock ($Id: //depot/dev/client3/rdock/2013.1/src/exe/rbdock.cxx#4 $)

>  <Rbt.Library>  (33) 
libRbt.so (2013.1, Build901 2013/11/27)

>  <Rbt.Parameter_File>  (33) 
/home/smaltr/software/rDock_2013.1_src//data/scripts/dock.prm

>  <Rbt.Receptor>  (33) 
/pylon5/mc5pksp/smaltr/gateway_workdirs/PROCESS_93251df5-8da2-4fa9-b874-71853b29d1ad/output/SnD-Target-Sep02/cavity/pocket_docking.prm

>  <SCORE>  (33) 
-23.387500

>  <SCORE.INTER>  (33) 
-21.667500

>  <SCORE.INTER.CONST>  (33) 
1

>  <SCORE.INTER.POLAR>  (33) 
-2.282600

>  <SCORE.INTER.REPUL>  (33) 
0.002201

>  <SCORE.INTER.ROT>  (33) 
6

>  <SCORE.INTER.VDW>  (33) 
-25.317700

>  <SCORE.INTER.norm>  (33) 
-0.833366

>  <SCORE.INTRA>  (33) 
-1.720030

>  <SCORE.INTRA.DIHEDRAL>  (33) 
-0.068457

>  <SCORE.INTRA.DIHEDRAL.0>  (33) 
6.271440

>  <SCORE.INTRA.POLAR>  (33) 
0

>  <SCORE.INTRA.POLAR.0>  (33) 
0

>  <SCORE.INTRA.REPUL>  (33) 
-0.010613

>  <SCORE.INTRA.REPUL.0>  (33) 
0.031068

>  <SCORE.INTRA.VDW>  (33) 
-1.632730

>  <SCORE.INTRA.VDW.0>  (33) 
-0.730908

>  <SCORE.INTRA.norm>  (33) 
-0.066155

>  <SCORE.RESTR>  (33) 
0

>  <SCORE.RESTR.CAVITY>  (33) 
0

>  <SCORE.RESTR.norm>  (33) 
0

>  <SCORE.SYSTEM>  (33) 
0

>  <SCORE.SYSTEM.CONST>  (33) 
0

>  <SCORE.SYSTEM.DIHEDRAL>  (33) 
0

>  <SCORE.SYSTEM.norm>  (33) 
0

>  <SCORE.heavy>  (33) 
26

>  <SCORE.norm>  (33) 
-0.899520

>  <SMILES>  (33) 
CCn1nnnc1-c1cccc(NC(=O)NCc2ccccc2CO)c1

>  <Cycle>  (33) 
228

>  <MolWeight>  (33) 
352.398000

>  <LogP>  (33) 
2.174000

>  <QED>  (33) 
0.630513

>  <SAS>  (33) 
2.224531

$$$$
design_18
     RDKit          3D

 51 53  0  0  0  0  0  0  0  0999 V2000
   -9.4244   -8.5935   -5.3102 C   0  0  0  0  0  0  0  0  0  0  0  0
  -10.1049   -7.2664   -5.0695 C   0  0  0  0  0  0  0  0  0  0  0  0
  -10.5540   -7.2160   -3.7111 N   0  0  0  0  0  0  0  0  0  0  0  0
   -9.7218   -7.2077   -2.6445 N   0  0  0  0  0  0  0  0  0  0  0  0
  -10.4021   -7.1926   -1.5317 N   0  0  0  0  0  0  0  0  0  0  0  0
  -11.6600   -7.1906   -1.8823 N   0  0  0  0  0  0  0  0  0  0  0  0
  -11.7854   -7.2043   -3.2571 C   0  0  0  0  0  0  0  0  0  0  0  0
  -13.0799   -7.2310   -3.8985 C   0  0  0  0  0  0  0  0  0  0  0  0
  -13.3628   -7.5964   -5.1726 C   0  0  0  0  0  0  0  0  0  0  0  0
  -14.6360   -7.6401   -5.6996 C   0  0  0  0  0  0  0  0  0  0  0  0
  -15.7031   -7.3081   -4.9450 C   0  0  0  0  0  0  0  0  0  0  0  0
  -15.4955   -6.9166   -3.6125 C   0  0  0  0  0  0  0  0  0  0  0  0
  -16.6525   -6.5828   -2.8829 N   0  0  0  0  0  0  0  0  0  0  0  0
  -16.6866   -6.1347   -1.5663 C   0  0  0  0  0  0  0  0  0  0  0  0
  -15.6939   -5.9695   -0.8522 O   0  0  0  0  0  0  0  0  0  0  0  0
  -17.9676   -5.8312   -0.9604 N   0  0  0  0  0  0  0  0  0  0  0  0
  -18.0501   -5.3702    0.3838 C   0  0  0  0  0  0  0  0  0  0  0  0
  -17.4800   -4.0548    0.6684 C   0  0  0  0  0  0  0  0  0  0  0  0
  -16.1829   -3.7677    0.9812 C   0  0  0  0  0  0  0  0  0  0  0  0
  -15.7903   -2.4592    1.2269 C   0  0  0  0  0  0  0  0  0  0  0  0
  -16.6679   -1.4227    1.1675 C   0  0  0  0  0  0  0  0  0  0  0  0
  -17.9708   -1.6952    0.8552 C   0  0  0  0  0  0  0  0  0  0  0  0
  -18.3710   -2.9802    0.6108 C   0  0  0  0  0  0  0  0  0  0  0  0
  -19.8066   -3.2343    0.2726 C   0  0  0  0  0  0  0  0  0  0  0  0
  -20.5477   -3.4058    1.4212 O   0  0  0  0  0  0  0  0  0  0  0  0
  -14.2099   -6.8876   -3.1288 C   0  0  0  0  0  0  0  0  0  0  0  0
   -8.4565   -8.6010   -4.8090 H   0  0  0  0  0  0  0  0  0  0  0  0
   -9.2798   -8.7394   -6.3807 H   0  0  0  0  0  0  0  0  0  0  0  0
  -10.9547   -7.1594   -5.7437 H   0  0  0  0  0  0  0  0  0  0  0  0
   -9.4011   -6.4547   -5.2535 H   0  0  0  0  0  0  0  0  0  0  0  0
  -12.5316   -7.8730   -5.8212 H   0  0  0  0  0  0  0  0  0  0  0  0
  -14.7814   -7.9458   -6.7357 H   0  0  0  0  0  0  0  0  0  0  0  0
  -16.7095   -7.3430   -5.3622 H   0  0  0  0  0  0  0  0  0  0  0  0
  -17.5384   -6.6773   -3.3587 H   0  0  0  0  0  0  0  0  0  0  0  0
  -18.8137   -5.9484   -1.4994 H   0  0  0  0  0  0  0  0  0  0  0  0
  -17.4479   -6.0714    0.9616 H   0  0  0  0  0  0  0  0  0  0  0  0
  -19.1047   -5.3389    0.6576 H   0  0  0  0  0  0  0  0  0  0  0  0
  -15.4496   -4.5721    1.0385 H   0  0  0  0  0  0  0  0  0  0  0  0
  -14.7483   -2.2569    1.4746 H   0  0  0  0  0  0  0  0  0  0  0  0
  -16.3415   -0.4014    1.3637 H   0  0  0  0  0  0  0  0  0  0  0  0
  -18.6956   -0.8829    0.8006 H   0  0  0  0  0  0  0  0  0  0  0  0
  -19.8727   -4.1408   -0.3290 H   0  0  0  0  0  0  0  0  0  0  0  0
  -20.2003   -2.3853   -0.2863 H   0  0  0  0  0  0  0  0  0  0  0  0
  -20.6381   -2.5636    1.8730 H   0  0  0  0  0  0  0  0  0  0  0  0
  -14.0553   -6.5825   -2.0938 H   0  0  0  0  0  0  0  0  0  0  0  0
  -10.0417   -9.3941   -4.9155 C   0  0  0  0  0  0  0  0  0  0  0  0
  -10.3773  -10.3796   -6.0139 C   0  0  0  0  0  0  0  0  0  0  0  0
   -9.4849  -10.9870   -6.6205 O   0  0  0  0  0  0  0  0  0  0  0  0
  -10.9483   -8.9692   -4.5102 H   0  0  0  0  0  0  0  0  0  0  0  0
   -9.5040   -9.8930   -4.1230 H   0  0  0  0  0  0  0  0  0  0  0  0
  -11.4205  -10.5575   -6.2751 H   0  0  0  0  0  0  0  0  0  0  0  0
  1  2  1  0
  2  3  1  0
  3  4  1  0
  4  5  2  0
  5  6  1  0
  6  7  2  0
  7  8  1  0
  8  9  2  0
  9 10  1  0
 10 11  2  0
 11 12  1  0
 12 13  1  0
 13 14  1  0
 14 15  2  0
 14 16  1  0
 16 17  1  0
 17 18  1  0
 18 19  2  0
 19 20  1  0
 20 21  2  0
 21 22  1  0
 22 23  2  0
 23 24  1  0
 24 25  1  0
 12 26  2  0
  3  7  1  0
  8 26  1  0
 18 23  1  0
  1 27  1  0
  1 28  1  0
  2 29  1  0
  2 30  1  0
  9 31  1  0
 10 32  1  0
 11 33  1  0
 13 34  1  0
 16 35  1  0
 17 36  1  0
 17 37  1  0
 19 38  1  0
 20 39  1  0
 21 40  1  0
 22 41  1  0
 24 42  1  0
 24 43  1  0
 25 44  1  0
 26 45  1  0
 46 47  1  0
 46 49  1  0
 46 50  1  0
 47 48  2  0
 47 51  1  0
  1 46  1  0
M  END
>  <CHROM.1>  (34) 
65.54951943,17.31776661,-178.12150393,66.29358976,-86.42720101,92.94566280
-178.26443940,-14.94787201,-5.71806082,-1.84865519,-0.72733613,-0.06183766
0.91603111

>  <Name>  (34) 
design_18

>  <RI>  (34) 
39991000.000000

>  <Rbt.Current_Directory>  (34) 
/pylon5/mc5pksp/smaltr/gateway_workdirs/PROCESS_93251df5-8da2-4fa9-b874-71853b29d1ad

>  <Rbt.Executable>  (34) 
rbdock ($Id: //depot/dev/client3/rdock/2013.1/src/exe/rbdock.cxx#4 $)

>  <Rbt.Library>  (34) 
libRbt.so (2013.1, Build901 2013/11/27)

>  <Rbt.Parameter_File>  (34) 
/home/smaltr/software/rDock_2013.1_src//data/scripts/dock.prm

>  <Rbt.Receptor>  (34) 
/pylon5/mc5pksp/smaltr/gateway_workdirs/PROCESS_93251df5-8da2-4fa9-b874-71853b29d1ad/output/SnD-Target-Sep02/cavity/pocket_docking.prm

>  <SCORE>  (34) 
-23.387500

>  <SCORE.INTER>  (34) 
-21.667500

>  <SCORE.INTER.CONST>  (34) 
1

>  <SCORE.INTER.POLAR>  (34) 
-2.282600

>  <SCORE.INTER.REPUL>  (34) 
0.002201

>  <SCORE.INTER.ROT>  (34) 
6

>  <SCORE.INTER.VDW>  (34) 
-25.317700

>  <SCORE.INTER.norm>  (34) 
-0.833366

>  <SCORE.INTRA>  (34) 
-1.720030

>  <SCORE.INTRA.DIHEDRAL>  (34) 
-0.068457

>  <SCORE.INTRA.DIHEDRAL.0>  (34) 
6.271440

>  <SCORE.INTRA.POLAR>  (34) 
0

>  <SCORE.INTRA.POLAR.0>  (34) 
0

>  <SCORE.INTRA.REPUL>  (34) 
-0.010613

>  <SCORE.INTRA.REPUL.0>  (34) 
0.031068

>  <SCORE.INTRA.VDW>  (34) 
-1.632730

>  <SCORE.INTRA.VDW.0>  (34) 
-0.730908

>  <SCORE.INTRA.norm>  (34) 
-0.066155

>  <SCORE.RESTR>  (34) 
0

>  <SCORE.RESTR.CAVITY>  (34) 
0

>  <SCORE.RESTR.norm>  (34) 
0

>  <SCORE.SYSTEM>  (34) 
0

>  <SCORE.SYSTEM.CONST>  (34) 
0

>  <SCORE.SYSTEM.DIHEDRAL>  (34) 
0

>  <SCORE.SYSTEM.norm>  (34) 
0

>  <SCORE.heavy>  (34) 
26

>  <SCORE.norm>  (34) 
-0.899520

>  <SMILES>  (34) 
CCn1nnnc1-c1cccc(NC(=O)NCc2ccccc2CO)c1

>  <Cycle>  (34) 
228

>  <MolWeight>  (34) 
352.398000

>  <LogP>  (34) 
2.174000

>  <QED>  (34) 
0.630513

>  <SAS>  (34) 
2.224531

$$$$
design_18
     RDKit          3D

 51 53  0  0  0  0  0  0  0  0999 V2000
   -9.4244   -8.5935   -5.3102 C   0  0  0  0  0  0  0  0  0  0  0  0
  -10.1049   -7.2664   -5.0695 C   0  0  0  0  0  0  0  0  0  0  0  0
  -10.5540   -7.2160   -3.7111 N   0  0  0  0  0  0  0  0  0  0  0  0
   -9.7218   -7.2077   -2.6445 N   0  0  0  0  0  0  0  0  0  0  0  0
  -10.4021   -7.1926   -1.5317 N   0  0  0  0  0  0  0  0  0  0  0  0
  -11.6600   -7.1906   -1.8823 N   0  0  0  0  0  0  0  0  0  0  0  0
  -11.7854   -7.2043   -3.2571 C   0  0  0  0  0  0  0  0  0  0  0  0
  -13.0799   -7.2310   -3.8985 C   0  0  0  0  0  0  0  0  0  0  0  0
  -13.3628   -7.5964   -5.1726 C   0  0  0  0  0  0  0  0  0  0  0  0
  -14.6360   -7.6401   -5.6996 C   0  0  0  0  0  0  0  0  0  0  0  0
  -15.7031   -7.3081   -4.9450 C   0  0  0  0  0  0  0  0  0  0  0  0
  -15.4955   -6.9166   -3.6125 C   0  0  0  0  0  0  0  0  0  0  0  0
  -16.6525   -6.5828   -2.8829 N   0  0  0  0  0  0  0  0  0  0  0  0
  -16.6866   -6.1347   -1.5663 C   0  0  0  0  0  0  0  0  0  0  0  0
  -15.6939   -5.9695   -0.8522 O   0  0  0  0  0  0  0  0  0  0  0  0
  -17.9676   -5.8312   -0.9604 N   0  0  0  0  0  0  0  0  0  0  0  0
  -18.0501   -5.3702    0.3838 C   0  0  0  0  0  0  0  0  0  0  0  0
  -17.4800   -4.0548    0.6684 C   0  0  0  0  0  0  0  0  0  0  0  0
  -16.1829   -3.7677    0.9812 C   0  0  0  0  0  0  0  0  0  0  0  0
  -15.7903   -2.4592    1.2269 C   0  0  0  0  0  0  0  0  0  0  0  0
  -16.6679   -1.4227    1.1675 C   0  0  0  0  0  0  0  0  0  0  0  0
  -17.9708   -1.6952    0.8552 C   0  0  0  0  0  0  0  0  0  0  0  0
  -18.3710   -2.9802    0.6108 C   0  0  0  0  0  0  0  0  0  0  0  0
  -19.8066   -3.2343    0.2726 C   0  0  0  0  0  0  0  0  0  0  0  0
  -20.5477   -3.4058    1.4212 O   0  0  0  0  0  0  0  0  0  0  0  0
  -14.2099   -6.8876   -3.1288 C   0  0  0  0  0  0  0  0  0  0  0  0
   -8.4565   -8.6010   -4.8090 H   0  0  0  0  0  0  0  0  0  0  0  0
  -10.0444   -9.3976   -4.9138 H   0  0  0  0  0  0  0  0  0  0  0  0
  -10.9547   -7.1594   -5.7437 H   0  0  0  0  0  0  0  0  0  0  0  0
   -9.4011   -6.4547   -5.2535 H   0  0  0  0  0  0  0  0  0  0  0  0
  -12.5316   -7.8730   -5.8212 H   0  0  0  0  0  0  0  0  0  0  0  0
  -14.7814   -7.9458   -6.7357 H   0  0  0  0  0  0  0  0  0  0  0  0
  -16.7095   -7.3430   -5.3622 H   0  0  0  0  0  0  0  0  0  0  0  0
  -17.5384   -6.6773   -3.3587 H   0  0  0  0  0  0  0  0  0  0  0  0
  -18.8137   -5.9484   -1.4994 H   0  0  0  0  0  0  0  0  0  0  0  0
  -17.4479   -6.0714    0.9616 H   0  0  0  0  0  0  0  0  0  0  0  0
  -19.1047   -5.3389    0.6576 H   0  0  0  0  0  0  0  0  0  0  0  0
  -15.4496   -4.5721    1.0385 H   0  0  0  0  0  0  0  0  0  0  0  0
  -14.7483   -2.2569    1.4746 H   0  0  0  0  0  0  0  0  0  0  0  0
  -16.3415   -0.4014    1.3637 H   0  0  0  0  0  0  0  0  0  0  0  0
  -18.6956   -0.8829    0.8006 H   0  0  0  0  0  0  0  0  0  0  0  0
  -19.8727   -4.1408   -0.3290 H   0  0  0  0  0  0  0  0  0  0  0  0
  -20.2003   -2.3853   -0.2863 H   0  0  0  0  0  0  0  0  0  0  0  0
  -20.6381   -2.5636    1.8730 H   0  0  0  0  0  0  0  0  0  0  0  0
  -14.0553   -6.5825   -2.0938 H   0  0  0  0  0  0  0  0  0  0  0  0
   -9.4273  -10.1253   -6.9706 C   0  0  0  0  0  0  0  0  0  0  0  0
   -9.2798   -8.7394   -6.3807 C   0  0  0  0  0  0  0  0  0  0  0  0
   -8.9974   -7.7687   -7.0957 O   0  0  0  0  0  0  0  0  0  0  0  0
   -8.5025  -10.4282   -7.4398 H   0  0  0  0  0  0  0  0  0  0  0  0
   -9.6733  -10.8338   -6.1932 H   0  0  0  0  0  0  0  0  0  0  0  0
  -10.2138  -10.1302   -7.7105 H   0  0  0  0  0  0  0  0  0  0  0  0
  1  2  1  0
  2  3  1  0
  3  4  1  0
  4  5  2  0
  5  6  1  0
  6  7  2  0
  7  8  1  0
  8  9  2  0
  9 10  1  0
 10 11  2  0
 11 12  1  0
 12 13  1  0
 13 14  1  0
 14 15  2  0
 14 16  1  0
 16 17  1  0
 17 18  1  0
 18 19  2  0
 19 20  1  0
 20 21  2  0
 21 22  1  0
 22 23  2  0
 23 24  1  0
 24 25  1  0
 12 26  2  0
  3  7  1  0
  8 26  1  0
 18 23  1  0
  1 27  1  0
  1 28  1  0
  2 29  1  0
  2 30  1  0
  9 31  1  0
 10 32  1  0
 11 33  1  0
 13 34  1  0
 16 35  1  0
 17 36  1  0
 17 37  1  0
 19 38  1  0
 20 39  1  0
 21 40  1  0
 22 41  1  0
 24 42  1  0
 24 43  1  0
 25 44  1  0
 26 45  1  0
 46 47  1  0
 46 49  1  0
 46 50  1  0
 46 51  1  0
 47 48  2  0
  1 47  1  0
M  END
>  <CHROM.1>  (35) 
65.54951943,17.31776661,-178.12150393,66.29358976,-86.42720101,92.94566280
-178.26443940,-14.94787201,-5.71806082,-1.84865519,-0.72733613,-0.06183766
0.91603111

>  <Name>  (35) 
design_18

>  <RI>  (35) 
39991000.000000

>  <Rbt.Current_Directory>  (35) 
/pylon5/mc5pksp/smaltr/gateway_workdirs/PROCESS_93251df5-8da2-4fa9-b874-71853b29d1ad

>  <Rbt.Executable>  (35) 
rbdock ($Id: //depot/dev/client3/rdock/2013.1/src/exe/rbdock.cxx#4 $)

>  <Rbt.Library>  (35) 
libRbt.so (2013.1, Build901 2013/11/27)

>  <Rbt.Parameter_File>  (35) 
/home/smaltr/software/rDock_2013.1_src//data/scripts/dock.prm

>  <Rbt.Receptor>  (35) 
/pylon5/mc5pksp/smaltr/gateway_workdirs/PROCESS_93251df5-8da2-4fa9-b874-71853b29d1ad/output/SnD-Target-Sep02/cavity/pocket_docking.prm

>  <SCORE>  (35) 
-23.387500

>  <SCORE.INTER>  (35) 
-21.667500

>  <SCORE.INTER.CONST>  (35) 
1

>  <SCORE.INTER.POLAR>  (35) 
-2.282600

>  <SCORE.INTER.REPUL>  (35) 
0.002201

>  <SCORE.INTER.ROT>  (35) 
6

>  <SCORE.INTER.VDW>  (35) 
-25.317700

>  <SCORE.INTER.norm>  (35) 
-0.833366

>  <SCORE.INTRA>  (35) 
-1.720030

>  <SCORE.INTRA.DIHEDRAL>  (35) 
-0.068457

>  <SCORE.INTRA.DIHEDRAL.0>  (35) 
6.271440

>  <SCORE.INTRA.POLAR>  (35) 
0

>  <SCORE.INTRA.POLAR.0>  (35) 
0

>  <SCORE.INTRA.REPUL>  (35) 
-0.010613

>  <SCORE.INTRA.REPUL.0>  (35) 
0.031068

>  <SCORE.INTRA.VDW>  (35) 
-1.632730

>  <SCORE.INTRA.VDW.0>  (35) 
-0.730908

>  <SCORE.INTRA.norm>  (35) 
-0.066155

>  <SCORE.RESTR>  (35) 
0

>  <SCORE.RESTR.CAVITY>  (35) 
0

>  <SCORE.RESTR.norm>  (35) 
0

>  <SCORE.SYSTEM>  (35) 
0

>  <SCORE.SYSTEM.CONST>  (35) 
0

>  <SCORE.SYSTEM.DIHEDRAL>  (35) 
0

>  <SCORE.SYSTEM.norm>  (35) 
0

>  <SCORE.heavy>  (35) 
26

>  <SCORE.norm>  (35) 
-0.899520

>  <SMILES>  (35) 
CCn1nnnc1-c1cccc(NC(=O)NCc2ccccc2CO)c1

>  <Cycle>  (35) 
228

>  <MolWeight>  (35) 
352.398000

>  <LogP>  (35) 
2.174000

>  <QED>  (35) 
0.630513

>  <SAS>  (35) 
2.224531

$$$$
design_18
     RDKit          3D

 51 53  0  0  0  0  0  0  0  0999 V2000
   -9.4244   -8.5935   -5.3102 C   0  0  0  0  0  0  0  0  0  0  0  0
  -10.1049   -7.2664   -5.0695 C   0  0  0  0  0  0  0  0  0  0  0  0
  -10.5540   -7.2160   -3.7111 N   0  0  0  0  0  0  0  0  0  0  0  0
   -9.7218   -7.2077   -2.6445 N   0  0  0  0  0  0  0  0  0  0  0  0
  -10.4021   -7.1926   -1.5317 N   0  0  0  0  0  0  0  0  0  0  0  0
  -11.6600   -7.1906   -1.8823 N   0  0  0  0  0  0  0  0  0  0  0  0
  -11.7854   -7.2043   -3.2571 C   0  0  0  0  0  0  0  0  0  0  0  0
  -13.0799   -7.2310   -3.8985 C   0  0  0  0  0  0  0  0  0  0  0  0
  -13.3628   -7.5964   -5.1726 C   0  0  0  0  0  0  0  0  0  0  0  0
  -14.6360   -7.6401   -5.6996 C   0  0  0  0  0  0  0  0  0  0  0  0
  -15.7031   -7.3081   -4.9450 C   0  0  0  0  0  0  0  0  0  0  0  0
  -15.4955   -6.9166   -3.6125 C   0  0  0  0  0  0  0  0  0  0  0  0
  -16.6525   -6.5828   -2.8829 N   0  0  0  0  0  0  0  0  0  0  0  0
  -16.6866   -6.1347   -1.5663 C   0  0  0  0  0  0  0  0  0  0  0  0
  -15.6939   -5.9695   -0.8522 O   0  0  0  0  0  0  0  0  0  0  0  0
  -17.9676   -5.8312   -0.9604 N   0  0  0  0  0  0  0  0  0  0  0  0
  -18.0501   -5.3702    0.3838 C   0  0  0  0  0  0  0  0  0  0  0  0
  -17.4800   -4.0548    0.6684 C   0  0  0  0  0  0  0  0  0  0  0  0
  -16.1829   -3.7677    0.9812 C   0  0  0  0  0  0  0  0  0  0  0  0
  -15.7903   -2.4592    1.2269 C   0  0  0  0  0  0  0  0  0  0  0  0
  -16.6679   -1.4227    1.1675 C   0  0  0  0  0  0  0  0  0  0  0  0
  -17.9708   -1.6952    0.8552 C   0  0  0  0  0  0  0  0  0  0  0  0
  -18.3710   -2.9802    0.6108 C   0  0  0  0  0  0  0  0  0  0  0  0
  -19.8066   -3.2343    0.2726 C   0  0  0  0  0  0  0  0  0  0  0  0
  -20.5477   -3.4058    1.4212 O   0  0  0  0  0  0  0  0  0  0  0  0
  -14.2099   -6.8876   -3.1288 C   0  0  0  0  0  0  0  0  0  0  0  0
   -8.4565   -8.6010   -4.8090 H   0  0  0  0  0  0  0  0  0  0  0  0
  -10.0444   -9.3976   -4.9138 H   0  0  0  0  0  0  0  0  0  0  0  0
  -10.9547   -7.1594   -5.7437 H   0  0  0  0  0  0  0  0  0  0  0  0
   -9.4011   -6.4547   -5.2535 H   0  0  0  0  0  0  0  0  0  0  0  0
  -12.5316   -7.8730   -5.8212 H   0  0  0  0  0  0  0  0  0  0  0  0
  -14.7814   -7.9458   -6.7357 H   0  0  0  0  0  0  0  0  0  0  0  0
  -16.7095   -7.3430   -5.3622 H   0  0  0  0  0  0  0  0  0  0  0  0
  -17.5384   -6.6773   -3.3587 H   0  0  0  0  0  0  0  0  0  0  0  0
  -18.8137   -5.9484   -1.4994 H   0  0  0  0  0  0  0  0  0  0  0  0
  -17.4479   -6.0714    0.9616 H   0  0  0  0  0  0  0  0  0  0  0  0
  -19.1047   -5.3389    0.6576 H   0  0  0  0  0  0  0  0  0  0  0  0
  -15.4496   -4.5721    1.0385 H   0  0  0  0  0  0  0  0  0  0  0  0
  -14.7483   -2.2569    1.4746 H   0  0  0  0  0  0  0  0  0  0  0  0
  -16.3415   -0.4014    1.3637 H   0  0  0  0  0  0  0  0  0  0  0  0
  -18.6956   -0.8829    0.8006 H   0  0  0  0  0  0  0  0  0  0  0  0
  -19.8727   -4.1408   -0.3290 H   0  0  0  0  0  0  0  0  0  0  0  0
  -20.2003   -2.3853   -0.2863 H   0  0  0  0  0  0  0  0  0  0  0  0
  -20.6381   -2.5636    1.8730 H   0  0  0  0  0  0  0  0  0  0  0  0
  -14.0553   -6.5825   -2.0938 H   0  0  0  0  0  0  0  0  0  0  0  0
   -9.2804   -8.7388   -6.3760 C   0  0  0  0  0  0  0  0  0  0  0  0
  -10.2101   -9.8205   -6.8821 C   0  0  0  0  0  0  0  0  0  0  0  0
  -11.4386   -9.7054   -6.7785 O   0  0  0  0  0  0  0  0  0  0  0  0
   -8.2531   -9.0206   -6.5548 H   0  0  0  0  0  0  0  0  0  0  0  0
   -9.4825   -7.8090   -6.8869 H   0  0  0  0  0  0  0  0  0  0  0  0
   -9.7919  -10.7143   -7.3449 H   0  0  0  0  0  0  0  0  0  0  0  0
  1  2  1  0
  2  3  1  0
  3  4  1  0
  4  5  2  0
  5  6  1  0
  6  7  2  0
  7  8  1  0
  8  9  2  0
  9 10  1  0
 10 11  2  0
 11 12  1  0
 12 13  1  0
 13 14  1  0
 14 15  2  0
 14 16  1  0
 16 17  1  0
 17 18  1  0
 18 19  2  0
 19 20  1  0
 20 21  2  0
 21 22  1  0
 22 23  2  0
 23 24  1  0
 24 25  1  0
 12 26  2  0
  3  7  1  0
  8 26  1  0
 18 23  1  0
  1 27  1  0
  1 28  1  0
  2 29  1  0
  2 30  1  0
  9 31  1  0
 10 32  1  0
 11 33  1  0
 13 34  1  0
 16 35  1  0
 17 36  1  0
 17 37  1  0
 19 38  1  0
 20 39  1  0
 21 40  1  0
 22 41  1  0
 24 42  1  0
 24 43  1  0
 25 44  1  0
 26 45  1  0
 46 47  1  0
 46 49  1  0
 46 50  1  0
 47 48  2  0
 47 51  1  0
  1 46  1  0
M  END
>  <CHROM.1>  (36) 
65.54951943,17.31776661,-178.12150393,66.29358976,-86.42720101,92.94566280
-178.26443940,-14.94787201,-5.71806082,-1.84865519,-0.72733613,-0.06183766
0.91603111

>  <Name>  (36) 
design_18

>  <RI>  (36) 
39991000.000000

>  <Rbt.Current_Directory>  (36) 
/pylon5/mc5pksp/smaltr/gateway_workdirs/PROCESS_93251df5-8da2-4fa9-b874-71853b29d1ad

>  <Rbt.Executable>  (36) 
rbdock ($Id: //depot/dev/client3/rdock/2013.1/src/exe/rbdock.cxx#4 $)

>  <Rbt.Library>  (36) 
libRbt.so (2013.1, Build901 2013/11/27)

>  <Rbt.Parameter_File>  (36) 
/home/smaltr/software/rDock_2013.1_src//data/scripts/dock.prm

>  <Rbt.Receptor>  (36) 
/pylon5/mc5pksp/smaltr/gateway_workdirs/PROCESS_93251df5-8da2-4fa9-b874-71853b29d1ad/output/SnD-Target-Sep02/cavity/pocket_docking.prm

>  <SCORE>  (36) 
-23.387500

>  <SCORE.INTER>  (36) 
-21.667500

>  <SCORE.INTER.CONST>  (36) 
1

>  <SCORE.INTER.POLAR>  (36) 
-2.282600

>  <SCORE.INTER.REPUL>  (36) 
0.002201

>  <SCORE.INTER.ROT>  (36) 
6

>  <SCORE.INTER.VDW>  (36) 
-25.317700

>  <SCORE.INTER.norm>  (36) 
-0.833366

>  <SCORE.INTRA>  (36) 
-1.720030

>  <SCORE.INTRA.DIHEDRAL>  (36) 
-0.068457

>  <SCORE.INTRA.DIHEDRAL.0>  (36) 
6.271440

>  <SCORE.INTRA.POLAR>  (36) 
0

>  <SCORE.INTRA.POLAR.0>  (36) 
0

>  <SCORE.INTRA.REPUL>  (36) 
-0.010613

>  <SCORE.INTRA.REPUL.0>  (36) 
0.031068

>  <SCORE.INTRA.VDW>  (36) 
-1.632730

>  <SCORE.INTRA.VDW.0>  (36) 
-0.730908

>  <SCORE.INTRA.norm>  (36) 
-0.066155

>  <SCORE.RESTR>  (36) 
0

>  <SCORE.RESTR.CAVITY>  (36) 
0

>  <SCORE.RESTR.norm>  (36) 
0

>  <SCORE.SYSTEM>  (36) 
0

>  <SCORE.SYSTEM.CONST>  (36) 
0

>  <SCORE.SYSTEM.DIHEDRAL>  (36) 
0

>  <SCORE.SYSTEM.norm>  (36) 
0

>  <SCORE.heavy>  (36) 
26

>  <SCORE.norm>  (36) 
-0.899520

>  <SMILES>  (36) 
CCn1nnnc1-c1cccc(NC(=O)NCc2ccccc2CO)c1

>  <Cycle>  (36) 
228

>  <MolWeight>  (36) 
352.398000

>  <LogP>  (36) 
2.174000

>  <QED>  (36) 
0.630513

>  <SAS>  (36) 
2.224531

$$$$
design_18
     RDKit          3D

 51 53  0  0  0  0  0  0  0  0999 V2000
   -9.4244   -8.5935   -5.3102 C   0  0  0  0  0  0  0  0  0  0  0  0
  -10.1049   -7.2664   -5.0695 C   0  0  0  0  0  0  0  0  0  0  0  0
  -10.5540   -7.2160   -3.7111 N   0  0  0  0  0  0  0  0  0  0  0  0
   -9.7218   -7.2077   -2.6445 N   0  0  0  0  0  0  0  0  0  0  0  0
  -10.4021   -7.1926   -1.5317 N   0  0  0  0  0  0  0  0  0  0  0  0
  -11.6600   -7.1906   -1.8823 N   0  0  0  0  0  0  0  0  0  0  0  0
  -11.7854   -7.2043   -3.2571 C   0  0  0  0  0  0  0  0  0  0  0  0
  -13.0799   -7.2310   -3.8985 C   0  0  0  0  0  0  0  0  0  0  0  0
  -13.3628   -7.5964   -5.1726 C   0  0  0  0  0  0  0  0  0  0  0  0
  -14.6360   -7.6401   -5.6996 C   0  0  0  0  0  0  0  0  0  0  0  0
  -15.7031   -7.3081   -4.9450 C   0  0  0  0  0  0  0  0  0  0  0  0
  -15.4955   -6.9166   -3.6125 C   0  0  0  0  0  0  0  0  0  0  0  0
  -16.6525   -6.5828   -2.8829 N   0  0  0  0  0  0  0  0  0  0  0  0
  -16.6866   -6.1347   -1.5663 C   0  0  0  0  0  0  0  0  0  0  0  0
  -15.6939   -5.9695   -0.8522 O   0  0  0  0  0  0  0  0  0  0  0  0
  -17.9676   -5.8312   -0.9604 N   0  0  0  0  0  0  0  0  0  0  0  0
  -18.0501   -5.3702    0.3838 C   0  0  0  0  0  0  0  0  0  0  0  0
  -17.4800   -4.0548    0.6684 C   0  0  0  0  0  0  0  0  0  0  0  0
  -16.1829   -3.7677    0.9812 C   0  0  0  0  0  0  0  0  0  0  0  0
  -15.7903   -2.4592    1.2269 C   0  0  0  0  0  0  0  0  0  0  0  0
  -16.6679   -1.4227    1.1675 C   0  0  0  0  0  0  0  0  0  0  0  0
  -17.9708   -1.6952    0.8552 C   0  0  0  0  0  0  0  0  0  0  0  0
  -18.3710   -2.9802    0.6108 C   0  0  0  0  0  0  0  0  0  0  0  0
  -19.8066   -3.2343    0.2726 C   0  0  0  0  0  0  0  0  0  0  0  0
  -20.5477   -3.4058    1.4212 O   0  0  0  0  0  0  0  0  0  0  0  0
  -14.2099   -6.8876   -3.1288 C   0  0  0  0  0  0  0  0  0  0  0  0
   -8.4565   -8.6010   -4.8090 H   0  0  0  0  0  0  0  0  0  0  0  0
  -10.0444   -9.3976   -4.9138 H   0  0  0  0  0  0  0  0  0  0  0  0
   -9.2798   -8.7394   -6.3807 H   0  0  0  0  0  0  0  0  0  0  0  0
   -9.4011   -6.4547   -5.2535 H   0  0  0  0  0  0  0  0  0  0  0  0
  -12.5316   -7.8730   -5.8212 H   0  0  0  0  0  0  0  0  0  0  0  0
  -14.7814   -7.9458   -6.7357 H   0  0  0  0  0  0  0  0  0  0  0  0
  -16.7095   -7.3430   -5.3622 H   0  0  0  0  0  0  0  0  0  0  0  0
  -17.5384   -6.6773   -3.3587 H   0  0  0  0  0  0  0  0  0  0  0  0
  -18.8137   -5.9484   -1.4994 H   0  0  0  0  0  0  0  0  0  0  0  0
  -17.4479   -6.0714    0.9616 H   0  0  0  0  0  0  0  0  0  0  0  0
  -19.1047   -5.3389    0.6576 H   0  0  0  0  0  0  0  0  0  0  0  0
  -15.4496   -4.5721    1.0385 H   0  0  0  0  0  0  0  0  0  0  0  0
  -14.7483   -2.2569    1.4746 H   0  0  0  0  0  0  0  0  0  0  0  0
  -16.3415   -0.4014    1.3637 H   0  0  0  0  0  0  0  0  0  0  0  0
  -18.6956   -0.8829    0.8006 H   0  0  0  0  0  0  0  0  0  0  0  0
  -19.8727   -4.1408   -0.3290 H   0  0  0  0  0  0  0  0  0  0  0  0
  -20.2003   -2.3853   -0.2863 H   0  0  0  0  0  0  0  0  0  0  0  0
  -20.6381   -2.5636    1.8730 H   0  0  0  0  0  0  0  0  0  0  0  0
  -14.0553   -6.5825   -2.0938 H   0  0  0  0  0  0  0  0  0  0  0  0
  -10.7499   -6.5372   -7.1080 C   0  0  0  0  0  0  0  0  0  0  0  0
  -10.9547   -7.1594   -5.7437 C   0  0  0  0  0  0  0  0  0  0  0  0
  -12.0730   -7.5488   -5.3817 O   0  0  0  0  0  0  0  0  0  0  0  0
  -11.3608   -5.6515   -7.2064 H   0  0  0  0  0  0  0  0  0  0  0  0
   -9.7131   -6.2629   -7.2375 H   0  0  0  0  0  0  0  0  0  0  0  0
  -11.0251   -7.2404   -7.8800 H   0  0  0  0  0  0  0  0  0  0  0  0
  1  2  1  0
  2  3  1  0
  3  4  1  0
  4  5  2  0
  5  6  1  0
  6  7  2  0
  7  8  1  0
  8  9  2  0
  9 10  1  0
 10 11  2  0
 11 12  1  0
 12 13  1  0
 13 14  1  0
 14 15  2  0
 14 16  1  0
 16 17  1  0
 17 18  1  0
 18 19  2  0
 19 20  1  0
 20 21  2  0
 21 22  1  0
 22 23  2  0
 23 24  1  0
 24 25  1  0
 12 26  2  0
  3  7  1  0
  8 26  1  0
 18 23  1  0
  1 27  1  0
  1 28  1  0
  1 29  1  0
  2 30  1  0
  9 31  1  0
 10 32  1  0
 11 33  1  0
 13 34  1  0
 16 35  1  0
 17 36  1  0
 17 37  1  0
 19 38  1  0
 20 39  1  0
 21 40  1  0
 22 41  1  0
 24 42  1  0
 24 43  1  0
 25 44  1  0
 26 45  1  0
 46 47  1  0
 46 49  1  0
 46 50  1  0
 46 51  1  0
 47 48  2  0
  2 47  1  0
M  END
>  <CHROM.1>  (37) 
65.54951943,17.31776661,-178.12150393,66.29358976,-86.42720101,92.94566280
-178.26443940,-14.94787201,-5.71806082,-1.84865519,-0.72733613,-0.06183766
0.91603111

>  <Name>  (37) 
design_18

>  <RI>  (37) 
39991000.000000

>  <Rbt.Current_Directory>  (37) 
/pylon5/mc5pksp/smaltr/gateway_workdirs/PROCESS_93251df5-8da2-4fa9-b874-71853b29d1ad

>  <Rbt.Executable>  (37) 
rbdock ($Id: //depot/dev/client3/rdock/2013.1/src/exe/rbdock.cxx#4 $)

>  <Rbt.Library>  (37) 
libRbt.so (2013.1, Build901 2013/11/27)

>  <Rbt.Parameter_File>  (37) 
/home/smaltr/software/rDock_2013.1_src//data/scripts/dock.prm

>  <Rbt.Receptor>  (37) 
/pylon5/mc5pksp/smaltr/gateway_workdirs/PROCESS_93251df5-8da2-4fa9-b874-71853b29d1ad/output/SnD-Target-Sep02/cavity/pocket_docking.prm

>  <SCORE>  (37) 
-23.387500

>  <SCORE.INTER>  (37) 
-21.667500

>  <SCORE.INTER.CONST>  (37) 
1

>  <SCORE.INTER.POLAR>  (37) 
-2.282600

>  <SCORE.INTER.REPUL>  (37) 
0.002201

>  <SCORE.INTER.ROT>  (37) 
6

>  <SCORE.INTER.VDW>  (37) 
-25.317700

>  <SCORE.INTER.norm>  (37) 
-0.833366

>  <SCORE.INTRA>  (37) 
-1.720030

>  <SCORE.INTRA.DIHEDRAL>  (37) 
-0.068457

>  <SCORE.INTRA.DIHEDRAL.0>  (37) 
6.271440

>  <SCORE.INTRA.POLAR>  (37) 
0

>  <SCORE.INTRA.POLAR.0>  (37) 
0

>  <SCORE.INTRA.REPUL>  (37) 
-0.010613

>  <SCORE.INTRA.REPUL.0>  (37) 
0.031068

>  <SCORE.INTRA.VDW>  (37) 
-1.632730

>  <SCORE.INTRA.VDW.0>  (37) 
-0.730908

>  <SCORE.INTRA.norm>  (37) 
-0.066155

>  <SCORE.RESTR>  (37) 
0

>  <SCORE.RESTR.CAVITY>  (37) 
0

>  <SCORE.RESTR.norm>  (37) 
0

>  <SCORE.SYSTEM>  (37) 
0

>  <SCORE.SYSTEM.CONST>  (37) 
0

>  <SCORE.SYSTEM.DIHEDRAL>  (37) 
0

>  <SCORE.SYSTEM.norm>  (37) 
0

>  <SCORE.heavy>  (37) 
26

>  <SCORE.norm>  (37) 
-0.899520

>  <SMILES>  (37) 
CCn1nnnc1-c1cccc(NC(=O)NCc2ccccc2CO)c1

>  <Cycle>  (37) 
228

>  <MolWeight>  (37) 
352.398000

>  <LogP>  (37) 
2.174000

>  <QED>  (37) 
0.630513

>  <SAS>  (37) 
2.224531

$$$$
design_18
     RDKit          3D

 51 53  0  0  0  0  0  0  0  0999 V2000
   -9.4244   -8.5935   -5.3102 C   0  0  0  0  0  0  0  0  0  0  0  0
  -10.1049   -7.2664   -5.0695 C   0  0  0  0  0  0  0  0  0  0  0  0
  -10.5540   -7.2160   -3.7111 N   0  0  0  0  0  0  0  0  0  0  0  0
   -9.7218   -7.2077   -2.6445 N   0  0  0  0  0  0  0  0  0  0  0  0
  -10.4021   -7.1926   -1.5317 N   0  0  0  0  0  0  0  0  0  0  0  0
  -11.6600   -7.1906   -1.8823 N   0  0  0  0  0  0  0  0  0  0  0  0
  -11.7854   -7.2043   -3.2571 C   0  0  0  0  0  0  0  0  0  0  0  0
  -13.0799   -7.2310   -3.8985 C   0  0  0  0  0  0  0  0  0  0  0  0
  -13.3628   -7.5964   -5.1726 C   0  0  0  0  0  0  0  0  0  0  0  0
  -14.6360   -7.6401   -5.6996 C   0  0  0  0  0  0  0  0  0  0  0  0
  -15.7031   -7.3081   -4.9450 C   0  0  0  0  0  0  0  0  0  0  0  0
  -15.4955   -6.9166   -3.6125 C   0  0  0  0  0  0  0  0  0  0  0  0
  -16.6525   -6.5828   -2.8829 N   0  0  0  0  0  0  0  0  0  0  0  0
  -16.6866   -6.1347   -1.5663 C   0  0  0  0  0  0  0  0  0  0  0  0
  -15.6939   -5.9695   -0.8522 O   0  0  0  0  0  0  0  0  0  0  0  0
  -17.9676   -5.8312   -0.9604 N   0  0  0  0  0  0  0  0  0  0  0  0
  -18.0501   -5.3702    0.3838 C   0  0  0  0  0  0  0  0  0  0  0  0
  -17.4800   -4.0548    0.6684 C   0  0  0  0  0  0  0  0  0  0  0  0
  -16.1829   -3.7677    0.9812 C   0  0  0  0  0  0  0  0  0  0  0  0
  -15.7903   -2.4592    1.2269 C   0  0  0  0  0  0  0  0  0  0  0  0
  -16.6679   -1.4227    1.1675 C   0  0  0  0  0  0  0  0  0  0  0  0
  -17.9708   -1.6952    0.8552 C   0  0  0  0  0  0  0  0  0  0  0  0
  -18.3710   -2.9802    0.6108 C   0  0  0  0  0  0  0  0  0  0  0  0
  -19.8066   -3.2343    0.2726 C   0  0  0  0  0  0  0  0  0  0  0  0
  -20.5477   -3.4058    1.4212 O   0  0  0  0  0  0  0  0  0  0  0  0
  -14.2099   -6.8876   -3.1288 C   0  0  0  0  0  0  0  0  0  0  0  0
   -8.4565   -8.6010   -4.8090 H   0  0  0  0  0  0  0  0  0  0  0  0
  -10.0444   -9.3976   -4.9138 H   0  0  0  0  0  0  0  0  0  0  0  0
   -9.2798   -8.7394   -6.3807 H   0  0  0  0  0  0  0  0  0  0  0  0
   -9.4011   -6.4547   -5.2535 H   0  0  0  0  0  0  0  0  0  0  0  0
  -12.5316   -7.8730   -5.8212 H   0  0  0  0  0  0  0  0  0  0  0  0
  -14.7814   -7.9458   -6.7357 H   0  0  0  0  0  0  0  0  0  0  0  0
  -16.7095   -7.3430   -5.3622 H   0  0  0  0  0  0  0  0  0  0  0  0
  -17.5384   -6.6773   -3.3587 H   0  0  0  0  0  0  0  0  0  0  0  0
  -18.8137   -5.9484   -1.4994 H   0  0  0  0  0  0  0  0  0  0  0  0
  -17.4479   -6.0714    0.9616 H   0  0  0  0  0  0  0  0  0  0  0  0
  -19.1047   -5.3389    0.6576 H   0  0  0  0  0  0  0  0  0  0  0  0
  -15.4496   -4.5721    1.0385 H   0  0  0  0  0  0  0  0  0  0  0  0
  -14.7483   -2.2569    1.4746 H   0  0  0  0  0  0  0  0  0  0  0  0
  -16.3415   -0.4014    1.3637 H   0  0  0  0  0  0  0  0  0  0  0  0
  -18.6956   -0.8829    0.8006 H   0  0  0  0  0  0  0  0  0  0  0  0
  -19.8727   -4.1408   -0.3290 H   0  0  0  0  0  0  0  0  0  0  0  0
  -20.2003   -2.3853   -0.2863 H   0  0  0  0  0  0  0  0  0  0  0  0
  -20.6381   -2.5636    1.8730 H   0  0  0  0  0  0  0  0  0  0  0  0
  -14.0553   -6.5825   -2.0938 H   0  0  0  0  0  0  0  0  0  0  0  0
  -10.9509   -7.1599   -5.7407 C   0  0  0  0  0  0  0  0  0  0  0  0
  -12.1437   -7.9152   -5.1955 C   0  0  0  0  0  0  0  0  0  0  0  0
  -12.6259   -7.6339   -4.0902 O   0  0  0  0  0  0  0  0  0  0  0  0
  -10.6787   -7.5490   -6.7109 H   0  0  0  0  0  0  0  0  0  0  0  0
  -11.1908   -6.1115   -5.8387 H   0  0  0  0  0  0  0  0  0  0  0  0
  -12.5851   -8.7190   -5.7848 H   0  0  0  0  0  0  0  0  0  0  0  0
  1  2  1  0
  2  3  1  0
  3  4  1  0
  4  5  2  0
  5  6  1  0
  6  7  2  0
  7  8  1  0
  8  9  2  0
  9 10  1  0
 10 11  2  0
 11 12  1  0
 12 13  1  0
 13 14  1  0
 14 15  2  0
 14 16  1  0
 16 17  1  0
 17 18  1  0
 18 19  2  0
 19 20  1  0
 20 21  2  0
 21 22  1  0
 22 23  2  0
 23 24  1  0
 24 25  1  0
 12 26  2  0
  3  7  1  0
  8 26  1  0
 18 23  1  0
  1 27  1  0
  1 28  1  0
  1 29  1  0
  2 30  1  0
  9 31  1  0
 10 32  1  0
 11 33  1  0
 13 34  1  0
 16 35  1  0
 17 36  1  0
 17 37  1  0
 19 38  1  0
 20 39  1  0
 21 40  1  0
 22 41  1  0
 24 42  1  0
 24 43  1  0
 25 44  1  0
 26 45  1  0
 46 47  1  0
 46 49  1  0
 46 50  1  0
 47 48  2  0
 47 51  1  0
  2 46  1  0
M  END
>  <CHROM.1>  (38) 
65.54951943,17.31776661,-178.12150393,66.29358976,-86.42720101,92.94566280
-178.26443940,-14.94787201,-5.71806082,-1.84865519,-0.72733613,-0.06183766
0.91603111

>  <Name>  (38) 
design_18

>  <RI>  (38) 
39991000.000000

>  <Rbt.Current_Directory>  (38) 
/pylon5/mc5pksp/smaltr/gateway_workdirs/PROCESS_93251df5-8da2-4fa9-b874-71853b29d1ad

>  <Rbt.Executable>  (38) 
rbdock ($Id: //depot/dev/client3/rdock/2013.1/src/exe/rbdock.cxx#4 $)

>  <Rbt.Library>  (38) 
libRbt.so (2013.1, Build901 2013/11/27)

>  <Rbt.Parameter_File>  (38) 
/home/smaltr/software/rDock_2013.1_src//data/scripts/dock.prm

>  <Rbt.Receptor>  (38) 
/pylon5/mc5pksp/smaltr/gateway_workdirs/PROCESS_93251df5-8da2-4fa9-b874-71853b29d1ad/output/SnD-Target-Sep02/cavity/pocket_docking.prm

>  <SCORE>  (38) 
-23.387500

>  <SCORE.INTER>  (38) 
-21.667500

>  <SCORE.INTER.CONST>  (38) 
1

>  <SCORE.INTER.POLAR>  (38) 
-2.282600

>  <SCORE.INTER.REPUL>  (38) 
0.002201

>  <SCORE.INTER.ROT>  (38) 
6

>  <SCORE.INTER.VDW>  (38) 
-25.317700

>  <SCORE.INTER.norm>  (38) 
-0.833366

>  <SCORE.INTRA>  (38) 
-1.720030

>  <SCORE.INTRA.DIHEDRAL>  (38) 
-0.068457

>  <SCORE.INTRA.DIHEDRAL.0>  (38) 
6.271440

>  <SCORE.INTRA.POLAR>  (38) 
0

>  <SCORE.INTRA.POLAR.0>  (38) 
0

>  <SCORE.INTRA.REPUL>  (38) 
-0.010613

>  <SCORE.INTRA.REPUL.0>  (38) 
0.031068

>  <SCORE.INTRA.VDW>  (38) 
-1.632730

>  <SCORE.INTRA.VDW.0>  (38) 
-0.730908

>  <SCORE.INTRA.norm>  (38) 
-0.066155

>  <SCORE.RESTR>  (38) 
0

>  <SCORE.RESTR.CAVITY>  (38) 
0

>  <SCORE.RESTR.norm>  (38) 
0

>  <SCORE.SYSTEM>  (38) 
0

>  <SCORE.SYSTEM.CONST>  (38) 
0

>  <SCORE.SYSTEM.DIHEDRAL>  (38) 
0

>  <SCORE.SYSTEM.norm>  (38) 
0

>  <SCORE.heavy>  (38) 
26

>  <SCORE.norm>  (38) 
-0.899520

>  <SMILES>  (38) 
CCn1nnnc1-c1cccc(NC(=O)NCc2ccccc2CO)c1

>  <Cycle>  (38) 
228

>  <MolWeight>  (38) 
352.398000

>  <LogP>  (38) 
2.174000

>  <QED>  (38) 
0.630513

>  <SAS>  (38) 
2.224531

$$$$
design_18
     RDKit          3D

 51 53  0  0  0  0  0  0  0  0999 V2000
   -9.4244   -8.5935   -5.3102 C   0  0  0  0  0  0  0  0  0  0  0  0
  -10.1049   -7.2664   -5.0695 C   0  0  0  0  0  0  0  0  0  0  0  0
  -10.5540   -7.2160   -3.7111 N   0  0  0  0  0  0  0  0  0  0  0  0
   -9.7218   -7.2077   -2.6445 N   0  0  0  0  0  0  0  0  0  0  0  0
  -10.4021   -7.1926   -1.5317 N   0  0  0  0  0  0  0  0  0  0  0  0
  -11.6600   -7.1906   -1.8823 N   0  0  0  0  0  0  0  0  0  0  0  0
  -11.7854   -7.2043   -3.2571 C   0  0  0  0  0  0  0  0  0  0  0  0
  -13.0799   -7.2310   -3.8985 C   0  0  0  0  0  0  0  0  0  0  0  0
  -13.3628   -7.5964   -5.1726 C   0  0  0  0  0  0  0  0  0  0  0  0
  -14.6360   -7.6401   -5.6996 C   0  0  0  0  0  0  0  0  0  0  0  0
  -15.7031   -7.3081   -4.9450 C   0  0  0  0  0  0  0  0  0  0  0  0
  -15.4955   -6.9166   -3.6125 C   0  0  0  0  0  0  0  0  0  0  0  0
  -16.6525   -6.5828   -2.8829 N   0  0  0  0  0  0  0  0  0  0  0  0
  -16.6866   -6.1347   -1.5663 C   0  0  0  0  0  0  0  0  0  0  0  0
  -15.6939   -5.9695   -0.8522 O   0  0  0  0  0  0  0  0  0  0  0  0
  -17.9676   -5.8312   -0.9604 N   0  0  0  0  0  0  0  0  0  0  0  0
  -18.0501   -5.3702    0.3838 C   0  0  0  0  0  0  0  0  0  0  0  0
  -17.4800   -4.0548    0.6684 C   0  0  0  0  0  0  0  0  0  0  0  0
  -16.1829   -3.7677    0.9812 C   0  0  0  0  0  0  0  0  0  0  0  0
  -15.7903   -2.4592    1.2269 C   0  0  0  0  0  0  0  0  0  0  0  0
  -16.6679   -1.4227    1.1675 C   0  0  0  0  0  0  0  0  0  0  0  0
  -17.9708   -1.6952    0.8552 C   0  0  0  0  0  0  0  0  0  0  0  0
  -18.3710   -2.9802    0.6108 C   0  0  0  0  0  0  0  0  0  0  0  0
  -19.8066   -3.2343    0.2726 C   0  0  0  0  0  0  0  0  0  0  0  0
  -20.5477   -3.4058    1.4212 O   0  0  0  0  0  0  0  0  0  0  0  0
  -14.2099   -6.8876   -3.1288 C   0  0  0  0  0  0  0  0  0  0  0  0
   -8.4565   -8.6010   -4.8090 H   0  0  0  0  0  0  0  0  0  0  0  0
  -10.0444   -9.3976   -4.9138 H   0  0  0  0  0  0  0  0  0  0  0  0
   -9.2798   -8.7394   -6.3807 H   0  0  0  0  0  0  0  0  0  0  0  0
  -10.9547   -7.1594   -5.7437 H   0  0  0  0  0  0  0  0  0  0  0  0
  -12.5316   -7.8730   -5.8212 H   0  0  0  0  0  0  0  0  0  0  0  0
  -14.7814   -7.9458   -6.7357 H   0  0  0  0  0  0  0  0  0  0  0  0
  -16.7095   -7.3430   -5.3622 H   0  0  0  0  0  0  0  0  0  0  0  0
  -17.5384   -6.6773   -3.3587 H   0  0  0  0  0  0  0  0  0  0  0  0
  -18.8137   -5.9484   -1.4994 H   0  0  0  0  0  0  0  0  0  0  0  0
  -17.4479   -6.0714    0.9616 H   0  0  0  0  0  0  0  0  0  0  0  0
  -19.1047   -5.3389    0.6576 H   0  0  0  0  0  0  0  0  0  0  0  0
  -15.4496   -4.5721    1.0385 H   0  0  0  0  0  0  0  0  0  0  0  0
  -14.7483   -2.2569    1.4746 H   0  0  0  0  0  0  0  0  0  0  0  0
  -16.3415   -0.4014    1.3637 H   0  0  0  0  0  0  0  0  0  0  0  0
  -18.6956   -0.8829    0.8006 H   0  0  0  0  0  0  0  0  0  0  0  0
  -19.8727   -4.1408   -0.3290 H   0  0  0  0  0  0  0  0  0  0  0  0
  -20.2003   -2.3853   -0.2863 H   0  0  0  0  0  0  0  0  0  0  0  0
  -20.6381   -2.5636    1.8730 H   0  0  0  0  0  0  0  0  0  0  0  0
  -14.0553   -6.5825   -2.0938 H   0  0  0  0  0  0  0  0  0  0  0  0
   -9.9188   -5.0419   -5.4161 C   0  0  0  0  0  0  0  0  0  0  0  0
   -9.4011   -6.4547   -5.2535 C   0  0  0  0  0  0  0  0  0  0  0  0
   -8.1901   -6.7025   -5.3263 O   0  0  0  0  0  0  0  0  0  0  0  0
   -9.6490   -4.6584   -6.3894 H   0  0  0  0  0  0  0  0  0  0  0  0
  -10.9948   -5.0291   -5.3212 H   0  0  0  0  0  0  0  0  0  0  0  0
   -9.4928   -4.4026   -4.6571 H   0  0  0  0  0  0  0  0  0  0  0  0
  1  2  1  0
  2  3  1  0
  3  4  1  0
  4  5  2  0
  5  6  1  0
  6  7  2  0
  7  8  1  0
  8  9  2  0
  9 10  1  0
 10 11  2  0
 11 12  1  0
 12 13  1  0
 13 14  1  0
 14 15  2  0
 14 16  1  0
 16 17  1  0
 17 18  1  0
 18 19  2  0
 19 20  1  0
 20 21  2  0
 21 22  1  0
 22 23  2  0
 23 24  1  0
 24 25  1  0
 12 26  2  0
  3  7  1  0
  8 26  1  0
 18 23  1  0
  1 27  1  0
  1 28  1  0
  1 29  1  0
  2 30  1  0
  9 31  1  0
 10 32  1  0
 11 33  1  0
 13 34  1  0
 16 35  1  0
 17 36  1  0
 17 37  1  0
 19 38  1  0
 20 39  1  0
 21 40  1  0
 22 41  1  0
 24 42  1  0
 24 43  1  0
 25 44  1  0
 26 45  1  0
 46 47  1  0
 46 49  1  0
 46 50  1  0
 46 51  1  0
 47 48  2  0
  2 47  1  0
M  END
>  <CHROM.1>  (39) 
65.54951943,17.31776661,-178.12150393,66.29358976,-86.42720101,92.94566280
-178.26443940,-14.94787201,-5.71806082,-1.84865519,-0.72733613,-0.06183766
0.91603111

>  <Name>  (39) 
design_18

>  <RI>  (39) 
39991000.000000

>  <Rbt.Current_Directory>  (39) 
/pylon5/mc5pksp/smaltr/gateway_workdirs/PROCESS_93251df5-8da2-4fa9-b874-71853b29d1ad

>  <Rbt.Executable>  (39) 
rbdock ($Id: //depot/dev/client3/rdock/2013.1/src/exe/rbdock.cxx#4 $)

>  <Rbt.Library>  (39) 
libRbt.so (2013.1, Build901 2013/11/27)

>  <Rbt.Parameter_File>  (39) 
/home/smaltr/software/rDock_2013.1_src//data/scripts/dock.prm

>  <Rbt.Receptor>  (39) 
/pylon5/mc5pksp/smaltr/gateway_workdirs/PROCESS_93251df5-8da2-4fa9-b874-71853b29d1ad/output/SnD-Target-Sep02/cavity/pocket_docking.prm

>  <SCORE>  (39) 
-23.387500

>  <SCORE.INTER>  (39) 
-21.667500

>  <SCORE.INTER.CONST>  (39) 
1

>  <SCORE.INTER.POLAR>  (39) 
-2.282600

>  <SCORE.INTER.REPUL>  (39) 
0.002201

>  <SCORE.INTER.ROT>  (39) 
6

>  <SCORE.INTER.VDW>  (39) 
-25.317700

>  <SCORE.INTER.norm>  (39) 
-0.833366

>  <SCORE.INTRA>  (39) 
-1.720030

>  <SCORE.INTRA.DIHEDRAL>  (39) 
-0.068457

>  <SCORE.INTRA.DIHEDRAL.0>  (39) 
6.271440

>  <SCORE.INTRA.POLAR>  (39) 
0

>  <SCORE.INTRA.POLAR.0>  (39) 
0

>  <SCORE.INTRA.REPUL>  (39) 
-0.010613

>  <SCORE.INTRA.REPUL.0>  (39) 
0.031068

>  <SCORE.INTRA.VDW>  (39) 
-1.632730

>  <SCORE.INTRA.VDW.0>  (39) 
-0.730908

>  <SCORE.INTRA.norm>  (39) 
-0.066155

>  <SCORE.RESTR>  (39) 
0

>  <SCORE.RESTR.CAVITY>  (39) 
0

>  <SCORE.RESTR.norm>  (39) 
0

>  <SCORE.SYSTEM>  (39) 
0

>  <SCORE.SYSTEM.CONST>  (39) 
0

>  <SCORE.SYSTEM.DIHEDRAL>  (39) 
0

>  <SCORE.SYSTEM.norm>  (39) 
0

>  <SCORE.heavy>  (39) 
26

>  <SCORE.norm>  (39) 
-0.899520

>  <SMILES>  (39) 
CCn1nnnc1-c1cccc(NC(=O)NCc2ccccc2CO)c1

>  <Cycle>  (39) 
228

>  <MolWeight>  (39) 
352.398000

>  <LogP>  (39) 
2.174000

>  <QED>  (39) 
0.630513

>  <SAS>  (39) 
2.224531

$$$$
design_18
     RDKit          3D

 51 53  0  0  0  0  0  0  0  0999 V2000
   -9.4244   -8.5935   -5.3102 C   0  0  0  0  0  0  0  0  0  0  0  0
  -10.1049   -7.2664   -5.0695 C   0  0  0  0  0  0  0  0  0  0  0  0
  -10.5540   -7.2160   -3.7111 N   0  0  0  0  0  0  0  0  0  0  0  0
   -9.7218   -7.2077   -2.6445 N   0  0  0  0  0  0  0  0  0  0  0  0
  -10.4021   -7.1926   -1.5317 N   0  0  0  0  0  0  0  0  0  0  0  0
  -11.6600   -7.1906   -1.8823 N   0  0  0  0  0  0  0  0  0  0  0  0
  -11.7854   -7.2043   -3.2571 C   0  0  0  0  0  0  0  0  0  0  0  0
  -13.0799   -7.2310   -3.8985 C   0  0  0  0  0  0  0  0  0  0  0  0
  -13.3628   -7.5964   -5.1726 C   0  0  0  0  0  0  0  0  0  0  0  0
  -14.6360   -7.6401   -5.6996 C   0  0  0  0  0  0  0  0  0  0  0  0
  -15.7031   -7.3081   -4.9450 C   0  0  0  0  0  0  0  0  0  0  0  0
  -15.4955   -6.9166   -3.6125 C   0  0  0  0  0  0  0  0  0  0  0  0
  -16.6525   -6.5828   -2.8829 N   0  0  0  0  0  0  0  0  0  0  0  0
  -16.6866   -6.1347   -1.5663 C   0  0  0  0  0  0  0  0  0  0  0  0
  -15.6939   -5.9695   -0.8522 O   0  0  0  0  0  0  0  0  0  0  0  0
  -17.9676   -5.8312   -0.9604 N   0  0  0  0  0  0  0  0  0  0  0  0
  -18.0501   -5.3702    0.3838 C   0  0  0  0  0  0  0  0  0  0  0  0
  -17.4800   -4.0548    0.6684 C   0  0  0  0  0  0  0  0  0  0  0  0
  -16.1829   -3.7677    0.9812 C   0  0  0  0  0  0  0  0  0  0  0  0
  -15.7903   -2.4592    1.2269 C   0  0  0  0  0  0  0  0  0  0  0  0
  -16.6679   -1.4227    1.1675 C   0  0  0  0  0  0  0  0  0  0  0  0
  -17.9708   -1.6952    0.8552 C   0  0  0  0  0  0  0  0  0  0  0  0
  -18.3710   -2.9802    0.6108 C   0  0  0  0  0  0  0  0  0  0  0  0
  -19.8066   -3.2343    0.2726 C   0  0  0  0  0  0  0  0  0  0  0  0
  -20.5477   -3.4058    1.4212 O   0  0  0  0  0  0  0  0  0  0  0  0
  -14.2099   -6.8876   -3.1288 C   0  0  0  0  0  0  0  0  0  0  0  0
   -8.4565   -8.6010   -4.8090 H   0  0  0  0  0  0  0  0  0  0  0  0
  -10.0444   -9.3976   -4.9138 H   0  0  0  0  0  0  0  0  0  0  0  0
   -9.2798   -8.7394   -6.3807 H   0  0  0  0  0  0  0  0  0  0  0  0
  -10.9547   -7.1594   -5.7437 H   0  0  0  0  0  0  0  0  0  0  0  0
  -12.5316   -7.8730   -5.8212 H   0  0  0  0  0  0  0  0  0  0  0  0
  -14.7814   -7.9458   -6.7357 H   0  0  0  0  0  0  0  0  0  0  0  0
  -16.7095   -7.3430   -5.3622 H   0  0  0  0  0  0  0  0  0  0  0  0
  -17.5384   -6.6773   -3.3587 H   0  0  0  0  0  0  0  0  0  0  0  0
  -18.8137   -5.9484   -1.4994 H   0  0  0  0  0  0  0  0  0  0  0  0
  -17.4479   -6.0714    0.9616 H   0  0  0  0  0  0  0  0  0  0  0  0
  -19.1047   -5.3389    0.6576 H   0  0  0  0  0  0  0  0  0  0  0  0
  -15.4496   -4.5721    1.0385 H   0  0  0  0  0  0  0  0  0  0  0  0
  -14.7483   -2.2569    1.4746 H   0  0  0  0  0  0  0  0  0  0  0  0
  -16.3415   -0.4014    1.3637 H   0  0  0  0  0  0  0  0  0  0  0  0
  -18.6956   -0.8829    0.8006 H   0  0  0  0  0  0  0  0  0  0  0  0
  -19.8727   -4.1408   -0.3290 H   0  0  0  0  0  0  0  0  0  0  0  0
  -20.2003   -2.3853   -0.2863 H   0  0  0  0  0  0  0  0  0  0  0  0
  -20.6381   -2.5636    1.8730 H   0  0  0  0  0  0  0  0  0  0  0  0
  -14.0553   -6.5825   -2.0938 H   0  0  0  0  0  0  0  0  0  0  0  0
   -9.4042   -6.4583   -5.2527 C   0  0  0  0  0  0  0  0  0  0  0  0
  -10.1184   -5.1260   -5.1787 C   0  0  0  0  0  0  0  0  0  0  0  0
  -10.6945   -4.7678   -4.1429 O   0  0  0  0  0  0  0  0  0  0  0  0
   -8.9670   -6.5897   -6.2317 H   0  0  0  0  0  0  0  0  0  0  0  0
   -8.6204   -6.4990   -4.5109 H   0  0  0  0  0  0  0  0  0  0  0  0
  -10.1256   -4.4718   -6.0506 H   0  0  0  0  0  0  0  0  0  0  0  0
  1  2  1  0
  2  3  1  0
  3  4  1  0
  4  5  2  0
  5  6  1  0
  6  7  2  0
  7  8  1  0
  8  9  2  0
  9 10  1  0
 10 11  2  0
 11 12  1  0
 12 13  1  0
 13 14  1  0
 14 15  2  0
 14 16  1  0
 16 17  1  0
 17 18  1  0
 18 19  2  0
 19 20  1  0
 20 21  2  0
 21 22  1  0
 22 23  2  0
 23 24  1  0
 24 25  1  0
 12 26  2  0
  3  7  1  0
  8 26  1  0
 18 23  1  0
  1 27  1  0
  1 28  1  0
  1 29  1  0
  2 30  1  0
  9 31  1  0
 10 32  1  0
 11 33  1  0
 13 34  1  0
 16 35  1  0
 17 36  1  0
 17 37  1  0
 19 38  1  0
 20 39  1  0
 21 40  1  0
 22 41  1  0
 24 42  1  0
 24 43  1  0
 25 44  1  0
 26 45  1  0
 46 47  1  0
 46 49  1  0
 46 50  1  0
 47 48  2  0
 47 51  1  0
  2 46  1  0
M  END
>  <CHROM.1>  (40) 
65.54951943,17.31776661,-178.12150393,66.29358976,-86.42720101,92.94566280
-178.26443940,-14.94787201,-5.71806082,-1.84865519,-0.72733613,-0.06183766
0.91603111

>  <Name>  (40) 
design_18

>  <RI>  (40) 
39991000.000000

>  <Rbt.Current_Directory>  (40) 
/pylon5/mc5pksp/smaltr/gateway_workdirs/PROCESS_93251df5-8da2-4fa9-b874-71853b29d1ad

>  <Rbt.Executable>  (40) 
rbdock ($Id: //depot/dev/client3/rdock/2013.1/src/exe/rbdock.cxx#4 $)

>  <Rbt.Library>  (40) 
libRbt.so (2013.1, Build901 2013/11/27)

>  <Rbt.Parameter_File>  (40) 
/home/smaltr/software/rDock_2013.1_src//data/scripts/dock.prm

>  <Rbt.Receptor>  (40) 
/pylon5/mc5pksp/smaltr/gateway_workdirs/PROCESS_93251df5-8da2-4fa9-b874-71853b29d1ad/output/SnD-Target-Sep02/cavity/pocket_docking.prm

>  <SCORE>  (40) 
-23.387500

>  <SCORE.INTER>  (40) 
-21.667500

>  <SCORE.INTER.CONST>  (40) 
1

>  <SCORE.INTER.POLAR>  (40) 
-2.282600

>  <SCORE.INTER.REPUL>  (40) 
0.002201

>  <SCORE.INTER.ROT>  (40) 
6

>  <SCORE.INTER.VDW>  (40) 
-25.317700

>  <SCORE.INTER.norm>  (40) 
-0.833366

>  <SCORE.INTRA>  (40) 
-1.720030

>  <SCORE.INTRA.DIHEDRAL>  (40) 
-0.068457

>  <SCORE.INTRA.DIHEDRAL.0>  (40) 
6.271440

>  <SCORE.INTRA.POLAR>  (40) 
0

>  <SCORE.INTRA.POLAR.0>  (40) 
0

>  <SCORE.INTRA.REPUL>  (40) 
-0.010613

>  <SCORE.INTRA.REPUL.0>  (40) 
0.031068

>  <SCORE.INTRA.VDW>  (40) 
-1.632730

>  <SCORE.INTRA.VDW.0>  (40) 
-0.730908

>  <SCORE.INTRA.norm>  (40) 
-0.066155

>  <SCORE.RESTR>  (40) 
0

>  <SCORE.RESTR.CAVITY>  (40) 
0

>  <SCORE.RESTR.norm>  (40) 
0

>  <SCORE.SYSTEM>  (40) 
0

>  <SCORE.SYSTEM.CONST>  (40) 
0

>  <SCORE.SYSTEM.DIHEDRAL>  (40) 
0

>  <SCORE.SYSTEM.norm>  (40) 
0

>  <SCORE.heavy>  (40) 
26

>  <SCORE.norm>  (40) 
-0.899520

>  <SMILES>  (40) 
CCn1nnnc1-c1cccc(NC(=O)NCc2ccccc2CO)c1

>  <Cycle>  (40) 
228

>  <MolWeight>  (40) 
352.398000

>  <LogP>  (40) 
2.174000

>  <QED>  (40) 
0.630513

>  <SAS>  (40) 
2.224531

$$$$
