design_18
     RDKit          3D

 51 53  0  0  0  0  0  0  0  0999 V2000
   -9.4244   -8.5935   -5.3102 C   0  0  0  0  0  0  0  0  0  0  0  0
  -10.1049   -7.2664   -5.0695 C   0  0  0  0  0  0  0  0  0  0  0  0
  -10.5540   -7.2160   -3.7111 N   0  0  0  0  0  0  0  0  0  0  0  0
   -9.7218   -7.2077   -2.6445 N   0  0  0  0  0  0  0  0  0  0  0  0
  -10.4021   -7.1926   -1.5317 N   0  0  0  0  0  0  0  0  0  0  0  0
  -11.6600   -7.1906   -1.8823 N   0  0  0  0  0  0  0  0  0  0  0  0
  -11.7854   -7.2043   -3.2571 C   0  0  0  0  0  0  0  0  0  0  0  0
  -13.0799   -7.2310   -3.8985 C   0  0  0  0  0  0  0  0  0  0  0  0
  -13.3628   -7.5964   -5.1726 C   0  0  0  0  0  0  0  0  0  0  0  0
  -14.6360   -7.6401   -5.6996 C   0  0  0  0  0  0  0  0  0  0  0  0
  -15.7031   -7.3081   -4.9450 C   0  0  0  0  0  0  0  0  0  0  0  0
  -15.4955   -6.9166   -3.6125 C   0  0  0  0  0  0  0  0  0  0  0  0
  -16.6525   -6.5828   -2.8829 N   0  0  0  0  0  0  0  0  0  0  0  0
  -16.6866   -6.1347   -1.5663 C   0  0  0  0  0  0  0  0  0  0  0  0
  -15.6939   -5.9695   -0.8522 O   0  0  0  0  0  0  0  0  0  0  0  0
  -17.9676   -5.8312   -0.9604 N   0  0  0  0  0  0  0  0  0  0  0  0
  -18.0501   -5.3702    0.3838 C   0  0  0  0  0  0  0  0  0  0  0  0
  -17.4800   -4.0548    0.6684 C   0  0  0  0  0  0  0  0  0  0  0  0
  -16.1829   -3.7677    0.9812 C   0  0  0  0  0  0  0  0  0  0  0  0
  -15.7903   -2.4592    1.2269 C   0  0  0  0  0  0  0  0  0  0  0  0
  -16.6679   -1.4227    1.1675 C   0  0  0  0  0  0  0  0  0  0  0  0
  -17.9708   -1.6952    0.8552 C   0  0  0  0  0  0  0  0  0  0  0  0
  -18.3710   -2.9802    0.6108 C   0  0  0  0  0  0  0  0  0  0  0  0
  -19.8066   -3.2343    0.2726 C   0  0  0  0  0  0  0  0  0  0  0  0
  -20.5477   -3.4058    1.4212 O   0  0  0  0  0  0  0  0  0  0  0  0
  -14.2099   -6.8876   -3.1288 C   0  0  0  0  0  0  0  0  0  0  0  0
   -8.4565   -8.6010   -4.8090 H   0  0  0  0  0  0  0  0  0  0  0  0
  -10.0444   -9.3976   -4.9138 H   0  0  0  0  0  0  0  0  0  0  0  0
   -9.2798   -8.7394   -6.3807 H   0  0  0  0  0  0  0  0  0  0  0  0
  -10.9547   -7.1594   -5.7437 H   0  0  0  0  0  0  0  0  0  0  0  0
   -9.4011   -6.4547   -5.2535 H   0  0  0  0  0  0  0  0  0  0  0  0
  -12.5316   -7.8730   -5.8212 H   0  0  0  0  0  0  0  0  0  0  0  0
  -14.7814   -7.9458   -6.7357 H   0  0  0  0  0  0  0  0  0  0  0  0
  -16.7095   -7.3430   -5.3622 H   0  0  0  0  0  0  0  0  0  0  0  0
  -17.5384   -6.6773   -3.3587 H   0  0  0  0  0  0  0  0  0  0  0  0
  -17.4479   -6.0714    0.9616 H   0  0  0  0  0  0  0  0  0  0  0  0
  -19.1047   -5.3389    0.6576 H   0  0  0  0  0  0  0  0  0  0  0  0
  -15.4496   -4.5721    1.0385 H   0  0  0  0  0  0  0  0  0  0  0  0
  -14.7483   -2.2569    1.4746 H   0  0  0  0  0  0  0  0  0  0  0  0
  -16.3415   -0.4014    1.3637 H   0  0  0  0  0  0  0  0  0  0  0  0
  -18.6956   -0.8829    0.8006 H   0  0  0  0  0  0  0  0  0  0  0  0
  -19.8727   -4.1408   -0.3290 H   0  0  0  0  0  0  0  0  0  0  0  0
  -20.2003   -2.3853   -0.2863 H   0  0  0  0  0  0  0  0  0  0  0  0
  -20.6381   -2.5636    1.8730 H   0  0  0  0  0  0  0  0  0  0  0  0
  -14.0553   -6.5825   -2.0938 H   0  0  0  0  0  0  0  0  0  0  0  0
  -18.8432   -5.9525   -1.5182 C   0  0  0  0  0  0  0  0  0  0  0  0
  -19.9825   -6.3655   -0.6116 C   0  0  0  0  0  0  0  0  0  0  0  0
  -20.3455   -5.6430    0.3261 O   0  0  0  0  0  0  0  0  0  0  0  0
  -18.6764   -6.7092   -2.2707 H   0  0  0  0  0  0  0  0  0  0  0  0
  -19.0796   -5.0189   -2.0068 H   0  0  0  0  0  0  0  0  0  0  0  0
  -20.4912   -7.3135   -0.7868 H   0  0  0  0  0  0  0  0  0  0  0  0
  1  2  1  0
  2  3  1  0
  3  4  1  0
  4  5  2  0
  5  6  1  0
  6  7  2  0
  7  8  1  0
  8  9  2  0
  9 10  1  0
 10 11  2  0
 11 12  1  0
 12 13  1  0
 13 14  1  0
 14 15  2  0
 14 16  1  0
 16 17  1  0
 17 18  1  0
 18 19  2  0
 19 20  1  0
 20 21  2  0
 21 22  1  0
 22 23  2  0
 23 24  1  0
 24 25  1  0
 12 26  2  0
  3  7  1  0
  8 26  1  0
 18 23  1  0
  1 27  1  0
  1 28  1  0
  1 29  1  0
  2 30  1  0
  2 31  1  0
  9 32  1  0
 10 33  1  0
 11 34  1  0
 13 35  1  0
 17 36  1  0
 17 37  1  0
 19 38  1  0
 20 39  1  0
 21 40  1  0
 22 41  1  0
 24 42  1  0
 24 43  1  0
 25 44  1  0
 26 45  1  0
 46 47  1  0
 46 49  1  0
 46 50  1  0
 47 48  2  0
 47 51  1  0
 16 46  1  0
M  END
>  <CHROM.1>  (1) 
65.54951943,17.31776661,-178.12150393,66.29358976,-86.42720101,92.94566280
-178.26443940,-14.94787201,-5.71806082,-1.84865519,-0.72733613,-0.06183766
0.91603111

>  <Name>  (1) 
design_18

>  <RI>  (1) 
39991000.000000

>  <Rbt.Current_Directory>  (1) 
/pylon5/mc5pksp/smaltr/gateway_workdirs/PROCESS_93251df5-8da2-4fa9-b874-71853b29d1ad

>  <Rbt.Executable>  (1) 
rbdock ($Id: //depot/dev/client3/rdock/2013.1/src/exe/rbdock.cxx#4 $)

>  <Rbt.Library>  (1) 
libRbt.so (2013.1, Build901 2013/11/27)

>  <Rbt.Parameter_File>  (1) 
/home/smaltr/software/rDock_2013.1_src//data/scripts/dock.prm

>  <Rbt.Receptor>  (1) 
/pylon5/mc5pksp/smaltr/gateway_workdirs/PROCESS_93251df5-8da2-4fa9-b874-71853b29d1ad/output/SnD-Target-Sep02/cavity/pocket_docking.prm

>  <SCORE>  (1) 
-23.387500

>  <SCORE.INTER>  (1) 
-21.667500

>  <SCORE.INTER.CONST>  (1) 
1

>  <SCORE.INTER.POLAR>  (1) 
-2.282600

>  <SCORE.INTER.REPUL>  (1) 
0.002201

>  <SCORE.INTER.ROT>  (1) 
6

>  <SCORE.INTER.VDW>  (1) 
-25.317700

>  <SCORE.INTER.norm>  (1) 
-0.833366

>  <SCORE.INTRA>  (1) 
-1.720030

>  <SCORE.INTRA.DIHEDRAL>  (1) 
-0.068457

>  <SCORE.INTRA.DIHEDRAL.0>  (1) 
6.271440

>  <SCORE.INTRA.POLAR>  (1) 
0

>  <SCORE.INTRA.POLAR.0>  (1) 
0

>  <SCORE.INTRA.REPUL>  (1) 
-0.010613

>  <SCORE.INTRA.REPUL.0>  (1) 
0.031068

>  <SCORE.INTRA.VDW>  (1) 
-1.632730

>  <SCORE.INTRA.VDW.0>  (1) 
-0.730908

>  <SCORE.INTRA.norm>  (1) 
-0.066155

>  <SCORE.RESTR>  (1) 
0

>  <SCORE.RESTR.CAVITY>  (1) 
0

>  <SCORE.RESTR.norm>  (1) 
0

>  <SCORE.SYSTEM>  (1) 
0

>  <SCORE.SYSTEM.CONST>  (1) 
0

>  <SCORE.SYSTEM.DIHEDRAL>  (1) 
0

>  <SCORE.SYSTEM.norm>  (1) 
0

>  <SCORE.heavy>  (1) 
26

>  <SCORE.norm>  (1) 
-0.899520

>  <SMILES>  (1) 
CCn1nnnc1-c1cccc(NC(=O)NCc2ccccc2CO)c1

>  <Cycle>  (1) 
228

>  <MolWeight>  (1) 
352.398000

>  <LogP>  (1) 
2.174000

>  <QED>  (1) 
0.630513

>  <SAS>  (1) 
2.0979673251382644

$$$$
design_18
     RDKit          3D

 51 53  0  0  0  0  0  0  0  0999 V2000
   -9.4244   -8.5935   -5.3102 C   0  0  0  0  0  0  0  0  0  0  0  0
  -10.1049   -7.2664   -5.0695 C   0  0  0  0  0  0  0  0  0  0  0  0
  -10.5540   -7.2160   -3.7111 N   0  0  0  0  0  0  0  0  0  0  0  0
   -9.7218   -7.2077   -2.6445 N   0  0  0  0  0  0  0  0  0  0  0  0
  -10.4021   -7.1926   -1.5317 N   0  0  0  0  0  0  0  0  0  0  0  0
  -11.6600   -7.1906   -1.8823 N   0  0  0  0  0  0  0  0  0  0  0  0
  -11.7854   -7.2043   -3.2571 C   0  0  0  0  0  0  0  0  0  0  0  0
  -13.0799   -7.2310   -3.8985 C   0  0  0  0  0  0  0  0  0  0  0  0
  -13.3628   -7.5964   -5.1726 C   0  0  0  0  0  0  0  0  0  0  0  0
  -14.6360   -7.6401   -5.6996 C   0  0  0  0  0  0  0  0  0  0  0  0
  -15.7031   -7.3081   -4.9450 C   0  0  0  0  0  0  0  0  0  0  0  0
  -15.4955   -6.9166   -3.6125 C   0  0  0  0  0  0  0  0  0  0  0  0
  -16.6525   -6.5828   -2.8829 N   0  0  0  0  0  0  0  0  0  0  0  0
  -16.6866   -6.1347   -1.5663 C   0  0  0  0  0  0  0  0  0  0  0  0
  -15.6939   -5.9695   -0.8522 O   0  0  0  0  0  0  0  0  0  0  0  0
  -17.9676   -5.8312   -0.9604 N   0  0  0  0  0  0  0  0  0  0  0  0
  -18.0501   -5.3702    0.3838 C   0  0  0  0  0  0  0  0  0  0  0  0
  -17.4800   -4.0548    0.6684 C   0  0  0  0  0  0  0  0  0  0  0  0
  -16.1829   -3.7677    0.9812 C   0  0  0  0  0  0  0  0  0  0  0  0
  -15.7903   -2.4592    1.2269 C   0  0  0  0  0  0  0  0  0  0  0  0
  -16.6679   -1.4227    1.1675 C   0  0  0  0  0  0  0  0  0  0  0  0
  -17.9708   -1.6952    0.8552 C   0  0  0  0  0  0  0  0  0  0  0  0
  -18.3710   -2.9802    0.6108 C   0  0  0  0  0  0  0  0  0  0  0  0
  -19.8066   -3.2343    0.2726 C   0  0  0  0  0  0  0  0  0  0  0  0
  -20.5477   -3.4058    1.4212 O   0  0  0  0  0  0  0  0  0  0  0  0
  -14.2099   -6.8876   -3.1288 C   0  0  0  0  0  0  0  0  0  0  0  0
  -10.0444   -9.3976   -4.9138 H   0  0  0  0  0  0  0  0  0  0  0  0
   -9.2798   -8.7394   -6.3807 H   0  0  0  0  0  0  0  0  0  0  0  0
  -10.9547   -7.1594   -5.7437 H   0  0  0  0  0  0  0  0  0  0  0  0
   -9.4011   -6.4547   -5.2535 H   0  0  0  0  0  0  0  0  0  0  0  0
  -12.5316   -7.8730   -5.8212 H   0  0  0  0  0  0  0  0  0  0  0  0
  -14.7814   -7.9458   -6.7357 H   0  0  0  0  0  0  0  0  0  0  0  0
  -16.7095   -7.3430   -5.3622 H   0  0  0  0  0  0  0  0  0  0  0  0
  -17.5384   -6.6773   -3.3587 H   0  0  0  0  0  0  0  0  0  0  0  0
  -18.8137   -5.9484   -1.4994 H   0  0  0  0  0  0  0  0  0  0  0  0
  -17.4479   -6.0714    0.9616 H   0  0  0  0  0  0  0  0  0  0  0  0
  -19.1047   -5.3389    0.6576 H   0  0  0  0  0  0  0  0  0  0  0  0
  -15.4496   -4.5721    1.0385 H   0  0  0  0  0  0  0  0  0  0  0  0
  -14.7483   -2.2569    1.4746 H   0  0  0  0  0  0  0  0  0  0  0  0
  -16.3415   -0.4014    1.3637 H   0  0  0  0  0  0  0  0  0  0  0  0
  -18.6956   -0.8829    0.8006 H   0  0  0  0  0  0  0  0  0  0  0  0
  -19.8727   -4.1408   -0.3290 H   0  0  0  0  0  0  0  0  0  0  0  0
  -20.2003   -2.3853   -0.2863 H   0  0  0  0  0  0  0  0  0  0  0  0
  -20.6381   -2.5636    1.8730 H   0  0  0  0  0  0  0  0  0  0  0  0
  -14.0553   -6.5825   -2.0938 H   0  0  0  0  0  0  0  0  0  0  0  0
   -7.6983   -9.9036   -4.6720 C   0  0  0  0  0  0  0  0  0  0  0  0
   -8.4565   -8.6010   -4.8090 C   0  0  0  0  0  0  0  0  0  0  0  0
   -7.9940   -7.5436   -4.3604 O   0  0  0  0  0  0  0  0  0  0  0  0
   -7.5378  -10.1305   -3.6280 H   0  0  0  0  0  0  0  0  0  0  0  0
   -8.2611  -10.7082   -5.1222 H   0  0  0  0  0  0  0  0  0  0  0  0
   -6.7406   -9.8274   -5.1653 H   0  0  0  0  0  0  0  0  0  0  0  0
  1  2  1  0
  2  3  1  0
  3  4  1  0
  4  5  2  0
  5  6  1  0
  6  7  2  0
  7  8  1  0
  8  9  2  0
  9 10  1  0
 10 11  2  0
 11 12  1  0
 12 13  1  0
 13 14  1  0
 14 15  2  0
 14 16  1  0
 16 17  1  0
 17 18  1  0
 18 19  2  0
 19 20  1  0
 20 21  2  0
 21 22  1  0
 22 23  2  0
 23 24  1  0
 24 25  1  0
 12 26  2  0
  3  7  1  0
  8 26  1  0
 18 23  1  0
  1 27  1  0
  1 28  1  0
  2 29  1  0
  2 30  1  0
  9 31  1  0
 10 32  1  0
 11 33  1  0
 13 34  1  0
 16 35  1  0
 17 36  1  0
 17 37  1  0
 19 38  1  0
 20 39  1  0
 21 40  1  0
 22 41  1  0
 24 42  1  0
 24 43  1  0
 25 44  1  0
 26 45  1  0
 46 47  1  0
 46 49  1  0
 46 50  1  0
 46 51  1  0
 47 48  2  0
  1 47  1  0
M  END
>  <CHROM.1>  (2) 
65.54951943,17.31776661,-178.12150393,66.29358976,-86.42720101,92.94566280
-178.26443940,-14.94787201,-5.71806082,-1.84865519,-0.72733613,-0.06183766
0.91603111

>  <Name>  (2) 
design_18

>  <RI>  (2) 
39991000.000000

>  <Rbt.Current_Directory>  (2) 
/pylon5/mc5pksp/smaltr/gateway_workdirs/PROCESS_93251df5-8da2-4fa9-b874-71853b29d1ad

>  <Rbt.Executable>  (2) 
rbdock ($Id: //depot/dev/client3/rdock/2013.1/src/exe/rbdock.cxx#4 $)

>  <Rbt.Library>  (2) 
libRbt.so (2013.1, Build901 2013/11/27)

>  <Rbt.Parameter_File>  (2) 
/home/smaltr/software/rDock_2013.1_src//data/scripts/dock.prm

>  <Rbt.Receptor>  (2) 
/pylon5/mc5pksp/smaltr/gateway_workdirs/PROCESS_93251df5-8da2-4fa9-b874-71853b29d1ad/output/SnD-Target-Sep02/cavity/pocket_docking.prm

>  <SCORE>  (2) 
-23.387500

>  <SCORE.INTER>  (2) 
-21.667500

>  <SCORE.INTER.CONST>  (2) 
1

>  <SCORE.INTER.POLAR>  (2) 
-2.282600

>  <SCORE.INTER.REPUL>  (2) 
0.002201

>  <SCORE.INTER.ROT>  (2) 
6

>  <SCORE.INTER.VDW>  (2) 
-25.317700

>  <SCORE.INTER.norm>  (2) 
-0.833366

>  <SCORE.INTRA>  (2) 
-1.720030

>  <SCORE.INTRA.DIHEDRAL>  (2) 
-0.068457

>  <SCORE.INTRA.DIHEDRAL.0>  (2) 
6.271440

>  <SCORE.INTRA.POLAR>  (2) 
0

>  <SCORE.INTRA.POLAR.0>  (2) 
0

>  <SCORE.INTRA.REPUL>  (2) 
-0.010613

>  <SCORE.INTRA.REPUL.0>  (2) 
0.031068

>  <SCORE.INTRA.VDW>  (2) 
-1.632730

>  <SCORE.INTRA.VDW.0>  (2) 
-0.730908

>  <SCORE.INTRA.norm>  (2) 
-0.066155

>  <SCORE.RESTR>  (2) 
0

>  <SCORE.RESTR.CAVITY>  (2) 
0

>  <SCORE.RESTR.norm>  (2) 
0

>  <SCORE.SYSTEM>  (2) 
0

>  <SCORE.SYSTEM.CONST>  (2) 
0

>  <SCORE.SYSTEM.DIHEDRAL>  (2) 
0

>  <SCORE.SYSTEM.norm>  (2) 
0

>  <SCORE.heavy>  (2) 
26

>  <SCORE.norm>  (2) 
-0.899520

>  <SMILES>  (2) 
CCn1nnnc1-c1cccc(NC(=O)NCc2ccccc2CO)c1

>  <Cycle>  (2) 
228

>  <MolWeight>  (2) 
352.398000

>  <LogP>  (2) 
2.174000

>  <QED>  (2) 
0.630513

>  <SAS>  (2) 
1

$$$$
design_18
     RDKit          3D

 54 57  0  0  0  0  0  0  0  0999 V2000
   -9.4244   -8.5935   -5.3102 C   0  0  0  0  0  0  0  0  0  0  0  0
  -10.1049   -7.2664   -5.0695 C   0  0  0  0  0  0  0  0  0  0  0  0
  -10.5540   -7.2160   -3.7111 N   0  0  0  0  0  0  0  0  0  0  0  0
   -9.7218   -7.2077   -2.6445 N   0  0  0  0  0  0  0  0  0  0  0  0
  -10.4021   -7.1926   -1.5317 N   0  0  0  0  0  0  0  0  0  0  0  0
  -11.6600   -7.1906   -1.8823 N   0  0  0  0  0  0  0  0  0  0  0  0
  -11.7854   -7.2043   -3.2571 C   0  0  0  0  0  0  0  0  0  0  0  0
  -13.0799   -7.2310   -3.8985 C   0  0  0  0  0  0  0  0  0  0  0  0
  -13.3628   -7.5964   -5.1726 C   0  0  0  0  0  0  0  0  0  0  0  0
  -14.6360   -7.6401   -5.6996 C   0  0  0  0  0  0  0  0  0  0  0  0
  -15.7031   -7.3081   -4.9450 C   0  0  0  0  0  0  0  0  0  0  0  0
  -15.4955   -6.9166   -3.6125 C   0  0  0  0  0  0  0  0  0  0  0  0
  -16.6525   -6.5828   -2.8829 N   0  0  0  0  0  0  0  0  0  0  0  0
  -16.6866   -6.1347   -1.5663 C   0  0  0  0  0  0  0  0  0  0  0  0
  -15.6939   -5.9695   -0.8522 O   0  0  0  0  0  0  0  0  0  0  0  0
  -17.9676   -5.8312   -0.9604 N   0  0  0  0  0  0  0  0  0  0  0  0
  -18.0501   -5.3702    0.3838 C   0  0  0  0  0  0  0  0  0  0  0  0
  -17.4800   -4.0548    0.6684 C   0  0  0  0  0  0  0  0  0  0  0  0
  -16.1829   -3.7677    0.9812 C   0  0  0  0  0  0  0  0  0  0  0  0
  -15.7903   -2.4592    1.2269 C   0  0  0  0  0  0  0  0  0  0  0  0
  -16.6679   -1.4227    1.1675 C   0  0  0  0  0  0  0  0  0  0  0  0
  -17.9708   -1.6952    0.8552 C   0  0  0  0  0  0  0  0  0  0  0  0
  -18.3710   -2.9802    0.6108 C   0  0  0  0  0  0  0  0  0  0  0  0
  -19.8066   -3.2343    0.2726 C   0  0  0  0  0  0  0  0  0  0  0  0
  -20.5477   -3.4058    1.4212 O   0  0  0  0  0  0  0  0  0  0  0  0
  -14.2099   -6.8876   -3.1288 C   0  0  0  0  0  0  0  0  0  0  0  0
   -8.4565   -8.6010   -4.8090 H   0  0  0  0  0  0  0  0  0  0  0  0
  -10.0444   -9.3976   -4.9138 H   0  0  0  0  0  0  0  0  0  0  0  0
   -9.2798   -8.7394   -6.3807 H   0  0  0  0  0  0  0  0  0  0  0  0
  -10.9547   -7.1594   -5.7437 H   0  0  0  0  0  0  0  0  0  0  0  0
   -9.4011   -6.4547   -5.2535 H   0  0  0  0  0  0  0  0  0  0  0  0
  -12.5316   -7.8730   -5.8212 H   0  0  0  0  0  0  0  0  0  0  0  0
  -14.7814   -7.9458   -6.7357 H   0  0  0  0  0  0  0  0  0  0  0  0
  -16.7095   -7.3430   -5.3622 H   0  0  0  0  0  0  0  0  0  0  0  0
  -18.8137   -5.9484   -1.4994 H   0  0  0  0  0  0  0  0  0  0  0  0
  -17.4479   -6.0714    0.9616 H   0  0  0  0  0  0  0  0  0  0  0  0
  -19.1047   -5.3389    0.6576 H   0  0  0  0  0  0  0  0  0  0  0  0
  -15.4496   -4.5721    1.0385 H   0  0  0  0  0  0  0  0  0  0  0  0
  -14.7483   -2.2569    1.4746 H   0  0  0  0  0  0  0  0  0  0  0  0
  -16.3415   -0.4014    1.3637 H   0  0  0  0  0  0  0  0  0  0  0  0
  -18.6956   -0.8829    0.8006 H   0  0  0  0  0  0  0  0  0  0  0  0
  -19.8727   -4.1408   -0.3290 H   0  0  0  0  0  0  0  0  0  0  0  0
  -20.2003   -2.3853   -0.2863 H   0  0  0  0  0  0  0  0  0  0  0  0
  -20.6381   -2.5636    1.8730 H   0  0  0  0  0  0  0  0  0  0  0  0
  -14.0553   -6.5825   -2.0938 H   0  0  0  0  0  0  0  0  0  0  0  0
  -19.9572   -6.9403   -4.6494 N   0  0  0  0  0  0  0  0  0  0  0  0
  -19.7037   -7.4510   -3.4421 C   0  0  0  0  0  0  0  0  0  0  0  0
  -18.5521   -7.3525   -2.7740 N   0  0  0  0  0  0  0  0  0  0  0  0
  -17.5696   -6.6806   -3.3754 C   0  0  0  0  0  0  0  0  0  0  0  0
  -17.7294   -6.1121   -4.6271 C   0  0  0  0  0  0  0  0  0  0  0  0
  -18.9638   -6.2716   -5.2350 C   0  0  0  0  0  0  0  0  0  0  0  0
  -20.5050   -7.9938   -2.9603 H   0  0  0  0  0  0  0  0  0  0  0  0
  -16.9298   -5.5704   -5.1082 H   0  0  0  0  0  0  0  0  0  0  0  0
  -19.1303   -5.8438   -6.2131 H   0  0  0  0  0  0  0  0  0  0  0  0
  1  2  1  0
  2  3  1  0
  3  4  1  0
  4  5  2  0
  5  6  1  0
  6  7  2  0
  7  8  1  0
  8  9  2  0
  9 10  1  0
 10 11  2  0
 11 12  1  0
 12 13  1  0
 13 14  1  0
 14 15  2  0
 14 16  1  0
 16 17  1  0
 17 18  1  0
 18 19  2  0
 19 20  1  0
 20 21  2  0
 21 22  1  0
 22 23  2  0
 23 24  1  0
 24 25  1  0
 12 26  2  0
  3  7  1  0
  8 26  1  0
 18 23  1  0
  1 27  1  0
  1 28  1  0
  1 29  1  0
  2 30  1  0
  2 31  1  0
  9 32  1  0
 10 33  1  0
 11 34  1  0
 16 35  1  0
 17 36  1  0
 17 37  1  0
 19 38  1  0
 20 39  1  0
 21 40  1  0
 22 41  1  0
 24 42  1  0
 24 43  1  0
 25 44  1  0
 26 45  1  0
 46 47  2  0
 47 52  1  0
 47 48  1  0
 48 49  2  0
 49 50  1  0
 50 53  1  0
 46 51  1  0
 50 51  2  0
 51 54  1  0
 13 49  1  0
M  END
>  <CHROM.1>  (3) 
65.54951943,17.31776661,-178.12150393,66.29358976,-86.42720101,92.94566280
-178.26443940,-14.94787201,-5.71806082,-1.84865519,-0.72733613,-0.06183766
0.91603111

>  <Name>  (3) 
design_18

>  <RI>  (3) 
39991000.000000

>  <Rbt.Current_Directory>  (3) 
/pylon5/mc5pksp/smaltr/gateway_workdirs/PROCESS_93251df5-8da2-4fa9-b874-71853b29d1ad

>  <Rbt.Executable>  (3) 
rbdock ($Id: //depot/dev/client3/rdock/2013.1/src/exe/rbdock.cxx#4 $)

>  <Rbt.Library>  (3) 
libRbt.so (2013.1, Build901 2013/11/27)

>  <Rbt.Parameter_File>  (3) 
/home/smaltr/software/rDock_2013.1_src//data/scripts/dock.prm

>  <Rbt.Receptor>  (3) 
/pylon5/mc5pksp/smaltr/gateway_workdirs/PROCESS_93251df5-8da2-4fa9-b874-71853b29d1ad/output/SnD-Target-Sep02/cavity/pocket_docking.prm

>  <SCORE>  (3) 
-23.387500

>  <SCORE.INTER>  (3) 
-21.667500

>  <SCORE.INTER.CONST>  (3) 
1

>  <SCORE.INTER.POLAR>  (3) 
-2.282600

>  <SCORE.INTER.REPUL>  (3) 
0.002201

>  <SCORE.INTER.ROT>  (3) 
6

>  <SCORE.INTER.VDW>  (3) 
-25.317700

>  <SCORE.INTER.norm>  (3) 
-0.833366

>  <SCORE.INTRA>  (3) 
-1.720030

>  <SCORE.INTRA.DIHEDRAL>  (3) 
-0.068457

>  <SCORE.INTRA.DIHEDRAL.0>  (3) 
6.271440

>  <SCORE.INTRA.POLAR>  (3) 
0

>  <SCORE.INTRA.POLAR.0>  (3) 
0

>  <SCORE.INTRA.REPUL>  (3) 
-0.010613

>  <SCORE.INTRA.REPUL.0>  (3) 
0.031068

>  <SCORE.INTRA.VDW>  (3) 
-1.632730

>  <SCORE.INTRA.VDW.0>  (3) 
-0.730908

>  <SCORE.INTRA.norm>  (3) 
-0.066155

>  <SCORE.RESTR>  (3) 
0

>  <SCORE.RESTR.CAVITY>  (3) 
0

>  <SCORE.RESTR.norm>  (3) 
0

>  <SCORE.SYSTEM>  (3) 
0

>  <SCORE.SYSTEM.CONST>  (3) 
0

>  <SCORE.SYSTEM.DIHEDRAL>  (3) 
0

>  <SCORE.SYSTEM.norm>  (3) 
0

>  <SCORE.heavy>  (3) 
26

>  <SCORE.norm>  (3) 
-0.899520

>  <SMILES>  (3) 
CCn1nnnc1-c1cccc(NC(=O)NCc2ccccc2CO)c1

>  <Cycle>  (3) 
228

>  <MolWeight>  (3) 
352.398000

>  <LogP>  (3) 
2.174000

>  <QED>  (3) 
0.630513

>  <SAS>  (3) 
2.0642654193786383

$$$$
design_18
     RDKit          3D

 57 60  0  0  0  0  0  0  0  0999 V2000
   -9.4244   -8.5935   -5.3102 C   0  0  0  0  0  0  0  0  0  0  0  0
  -10.1049   -7.2664   -5.0695 C   0  0  0  0  0  0  0  0  0  0  0  0
  -10.5540   -7.2160   -3.7111 N   0  0  0  0  0  0  0  0  0  0  0  0
   -9.7218   -7.2077   -2.6445 N   0  0  0  0  0  0  0  0  0  0  0  0
  -10.4021   -7.1926   -1.5317 N   0  0  0  0  0  0  0  0  0  0  0  0
  -11.6600   -7.1906   -1.8823 N   0  0  0  0  0  0  0  0  0  0  0  0
  -11.7854   -7.2043   -3.2571 C   0  0  0  0  0  0  0  0  0  0  0  0
  -13.0799   -7.2310   -3.8985 C   0  0  0  0  0  0  0  0  0  0  0  0
  -13.3628   -7.5964   -5.1726 C   0  0  0  0  0  0  0  0  0  0  0  0
  -14.6360   -7.6401   -5.6996 C   0  0  0  0  0  0  0  0  0  0  0  0
  -15.7031   -7.3081   -4.9450 C   0  0  0  0  0  0  0  0  0  0  0  0
  -15.4955   -6.9166   -3.6125 C   0  0  0  0  0  0  0  0  0  0  0  0
  -16.6525   -6.5828   -2.8829 N   0  0  0  0  0  0  0  0  0  0  0  0
  -16.6866   -6.1347   -1.5663 C   0  0  0  0  0  0  0  0  0  0  0  0
  -15.6939   -5.9695   -0.8522 O   0  0  0  0  0  0  0  0  0  0  0  0
  -17.9676   -5.8312   -0.9604 N   0  0  0  0  0  0  0  0  0  0  0  0
  -18.0501   -5.3702    0.3838 C   0  0  0  0  0  0  0  0  0  0  0  0
  -17.4800   -4.0548    0.6684 C   0  0  0  0  0  0  0  0  0  0  0  0
  -16.1829   -3.7677    0.9812 C   0  0  0  0  0  0  0  0  0  0  0  0
  -15.7903   -2.4592    1.2269 C   0  0  0  0  0  0  0  0  0  0  0  0
  -16.6679   -1.4227    1.1675 C   0  0  0  0  0  0  0  0  0  0  0  0
  -17.9708   -1.6952    0.8552 C   0  0  0  0  0  0  0  0  0  0  0  0
  -18.3710   -2.9802    0.6108 C   0  0  0  0  0  0  0  0  0  0  0  0
  -19.8066   -3.2343    0.2726 C   0  0  0  0  0  0  0  0  0  0  0  0
  -20.5477   -3.4058    1.4212 O   0  0  0  0  0  0  0  0  0  0  0  0
  -14.2099   -6.8876   -3.1288 C   0  0  0  0  0  0  0  0  0  0  0  0
   -8.4565   -8.6010   -4.8090 H   0  0  0  0  0  0  0  0  0  0  0  0
  -10.0444   -9.3976   -4.9138 H   0  0  0  0  0  0  0  0  0  0  0  0
   -9.2798   -8.7394   -6.3807 H   0  0  0  0  0  0  0  0  0  0  0  0
  -10.9547   -7.1594   -5.7437 H   0  0  0  0  0  0  0  0  0  0  0  0
   -9.4011   -6.4547   -5.2535 H   0  0  0  0  0  0  0  0  0  0  0  0
  -12.5316   -7.8730   -5.8212 H   0  0  0  0  0  0  0  0  0  0  0  0
  -16.7095   -7.3430   -5.3622 H   0  0  0  0  0  0  0  0  0  0  0  0
  -17.5384   -6.6773   -3.3587 H   0  0  0  0  0  0  0  0  0  0  0  0
  -18.8137   -5.9484   -1.4994 H   0  0  0  0  0  0  0  0  0  0  0  0
  -17.4479   -6.0714    0.9616 H   0  0  0  0  0  0  0  0  0  0  0  0
  -19.1047   -5.3389    0.6576 H   0  0  0  0  0  0  0  0  0  0  0  0
  -15.4496   -4.5721    1.0385 H   0  0  0  0  0  0  0  0  0  0  0  0
  -14.7483   -2.2569    1.4746 H   0  0  0  0  0  0  0  0  0  0  0  0
  -16.3415   -0.4014    1.3637 H   0  0  0  0  0  0  0  0  0  0  0  0
  -18.6956   -0.8829    0.8006 H   0  0  0  0  0  0  0  0  0  0  0  0
  -19.8727   -4.1408   -0.3290 H   0  0  0  0  0  0  0  0  0  0  0  0
  -20.2003   -2.3853   -0.2863 H   0  0  0  0  0  0  0  0  0  0  0  0
  -20.6381   -2.5636    1.8730 H   0  0  0  0  0  0  0  0  0  0  0  0
  -14.0553   -6.5825   -2.0938 H   0  0  0  0  0  0  0  0  0  0  0  0
  -14.7752   -7.9327   -6.6913 N   0  0  0  0  0  0  0  0  0  0  0  0
  -14.3093   -9.1711   -6.9555 C   0  0  0  0  0  0  0  0  0  0  0  0
  -14.4528   -9.6303   -8.2242 N   0  0  0  0  0  0  0  0  0  0  0  0
  -15.0276   -8.9159   -9.2113 C   0  0  0  0  0  0  0  0  0  0  0  0
  -15.5469   -7.5596   -8.9578 C   0  0  0  0  0  0  0  0  0  0  0  0
  -15.4193   -7.0807   -7.7111 C   0  0  0  0  0  0  0  0  0  0  0  0
  -13.7853   -9.8346   -6.0758 O   0  0  0  0  0  0  0  0  0  0  0  0
  -15.1069   -9.4831  -10.4188 N   0  0  0  0  0  0  0  0  0  0  0  0
  -14.7390  -10.4049  -10.5353 H   0  0  0  0  0  0  0  0  0  0  0  0
  -15.5205   -9.0135  -11.1970 H   0  0  0  0  0  0  0  0  0  0  0  0
  -16.0055   -6.9926   -9.7453 H   0  0  0  0  0  0  0  0  0  0  0  0
  -15.7803   -6.0964   -7.4679 H   0  0  0  0  0  0  0  0  0  0  0  0
  1  2  1  0
  2  3  1  0
  3  4  1  0
  4  5  2  0
  5  6  1  0
  6  7  2  0
  7  8  1  0
  8  9  2  0
  9 10  1  0
 10 11  2  0
 11 12  1  0
 12 13  1  0
 13 14  1  0
 14 15  2  0
 14 16  1  0
 16 17  1  0
 17 18  1  0
 18 19  2  0
 19 20  1  0
 20 21  2  0
 21 22  1  0
 22 23  2  0
 23 24  1  0
 24 25  1  0
 12 26  2  0
  3  7  1  0
  8 26  1  0
 18 23  1  0
  1 27  1  0
  1 28  1  0
  1 29  1  0
  2 30  1  0
  2 31  1  0
  9 32  1  0
 11 33  1  0
 13 34  1  0
 16 35  1  0
 17 36  1  0
 17 37  1  0
 19 38  1  0
 20 39  1  0
 21 40  1  0
 22 41  1  0
 24 42  1  0
 24 43  1  0
 25 44  1  0
 26 45  1  0
 46 47  1  0
 47 52  2  0
 47 48  1  0
 48 49  2  0
 49 50  1  0
 49 53  1  0
 50 51  2  0
 50 56  1  0
 46 51  1  0
 51 57  1  0
 53 54  1  0
 53 55  1  0
 10 46  1  0
M  END
>  <CHROM.1>  (4) 
65.54951943,17.31776661,-178.12150393,66.29358976,-86.42720101,92.94566280
-178.26443940,-14.94787201,-5.71806082,-1.84865519,-0.72733613,-0.06183766
0.91603111

>  <Name>  (4) 
design_18

>  <RI>  (4) 
39991000.000000

>  <Rbt.Current_Directory>  (4) 
/pylon5/mc5pksp/smaltr/gateway_workdirs/PROCESS_93251df5-8da2-4fa9-b874-71853b29d1ad

>  <Rbt.Executable>  (4) 
rbdock ($Id: //depot/dev/client3/rdock/2013.1/src/exe/rbdock.cxx#4 $)

>  <Rbt.Library>  (4) 
libRbt.so (2013.1, Build901 2013/11/27)

>  <Rbt.Parameter_File>  (4) 
/home/smaltr/software/rDock_2013.1_src//data/scripts/dock.prm

>  <Rbt.Receptor>  (4) 
/pylon5/mc5pksp/smaltr/gateway_workdirs/PROCESS_93251df5-8da2-4fa9-b874-71853b29d1ad/output/SnD-Target-Sep02/cavity/pocket_docking.prm

>  <SCORE>  (4) 
-23.387500

>  <SCORE.INTER>  (4) 
-21.667500

>  <SCORE.INTER.CONST>  (4) 
1

>  <SCORE.INTER.POLAR>  (4) 
-2.282600

>  <SCORE.INTER.REPUL>  (4) 
0.002201

>  <SCORE.INTER.ROT>  (4) 
6

>  <SCORE.INTER.VDW>  (4) 
-25.317700

>  <SCORE.INTER.norm>  (4) 
-0.833366

>  <SCORE.INTRA>  (4) 
-1.720030

>  <SCORE.INTRA.DIHEDRAL>  (4) 
-0.068457

>  <SCORE.INTRA.DIHEDRAL.0>  (4) 
6.271440

>  <SCORE.INTRA.POLAR>  (4) 
0

>  <SCORE.INTRA.POLAR.0>  (4) 
0

>  <SCORE.INTRA.REPUL>  (4) 
-0.010613

>  <SCORE.INTRA.REPUL.0>  (4) 
0.031068

>  <SCORE.INTRA.VDW>  (4) 
-1.632730

>  <SCORE.INTRA.VDW.0>  (4) 
-0.730908

>  <SCORE.INTRA.norm>  (4) 
-0.066155

>  <SCORE.RESTR>  (4) 
0

>  <SCORE.RESTR.CAVITY>  (4) 
0

>  <SCORE.RESTR.norm>  (4) 
0

>  <SCORE.SYSTEM>  (4) 
0

>  <SCORE.SYSTEM.CONST>  (4) 
0

>  <SCORE.SYSTEM.DIHEDRAL>  (4) 
0

>  <SCORE.SYSTEM.norm>  (4) 
0

>  <SCORE.heavy>  (4) 
26

>  <SCORE.norm>  (4) 
-0.899520

>  <SMILES>  (4) 
CCn1nnnc1-c1cccc(NC(=O)NCc2ccccc2CO)c1

>  <Cycle>  (4) 
228

>  <MolWeight>  (4) 
352.398000

>  <LogP>  (4) 
2.174000

>  <QED>  (4) 
0.630513

>  <SAS>  (4) 
2.0135372329820722

$$$$
design_18
     RDKit          3D

 57 60  0  0  0  0  0  0  0  0999 V2000
   -9.4244   -8.5935   -5.3102 C   0  0  0  0  0  0  0  0  0  0  0  0
  -10.1049   -7.2664   -5.0695 C   0  0  0  0  0  0  0  0  0  0  0  0
  -10.5540   -7.2160   -3.7111 N   0  0  0  0  0  0  0  0  0  0  0  0
   -9.7218   -7.2077   -2.6445 N   0  0  0  0  0  0  0  0  0  0  0  0
  -10.4021   -7.1926   -1.5317 N   0  0  0  0  0  0  0  0  0  0  0  0
  -11.6600   -7.1906   -1.8823 N   0  0  0  0  0  0  0  0  0  0  0  0
  -11.7854   -7.2043   -3.2571 C   0  0  0  0  0  0  0  0  0  0  0  0
  -13.0799   -7.2310   -3.8985 C   0  0  0  0  0  0  0  0  0  0  0  0
  -13.3628   -7.5964   -5.1726 C   0  0  0  0  0  0  0  0  0  0  0  0
  -14.6360   -7.6401   -5.6996 C   0  0  0  0  0  0  0  0  0  0  0  0
  -15.7031   -7.3081   -4.9450 C   0  0  0  0  0  0  0  0  0  0  0  0
  -15.4955   -6.9166   -3.6125 C   0  0  0  0  0  0  0  0  0  0  0  0
  -16.6525   -6.5828   -2.8829 N   0  0  0  0  0  0  0  0  0  0  0  0
  -16.6866   -6.1347   -1.5663 C   0  0  0  0  0  0  0  0  0  0  0  0
  -15.6939   -5.9695   -0.8522 O   0  0  0  0  0  0  0  0  0  0  0  0
  -17.9676   -5.8312   -0.9604 N   0  0  0  0  0  0  0  0  0  0  0  0
  -18.0501   -5.3702    0.3838 C   0  0  0  0  0  0  0  0  0  0  0  0
  -17.4800   -4.0548    0.6684 C   0  0  0  0  0  0  0  0  0  0  0  0
  -16.1829   -3.7677    0.9812 C   0  0  0  0  0  0  0  0  0  0  0  0
  -15.7903   -2.4592    1.2269 C   0  0  0  0  0  0  0  0  0  0  0  0
  -16.6679   -1.4227    1.1675 C   0  0  0  0  0  0  0  0  0  0  0  0
  -17.9708   -1.6952    0.8552 C   0  0  0  0  0  0  0  0  0  0  0  0
  -18.3710   -2.9802    0.6108 C   0  0  0  0  0  0  0  0  0  0  0  0
  -19.8066   -3.2343    0.2726 C   0  0  0  0  0  0  0  0  0  0  0  0
  -20.5477   -3.4058    1.4212 O   0  0  0  0  0  0  0  0  0  0  0  0
  -14.2099   -6.8876   -3.1288 C   0  0  0  0  0  0  0  0  0  0  0  0
   -8.4565   -8.6010   -4.8090 H   0  0  0  0  0  0  0  0  0  0  0  0
  -10.0444   -9.3976   -4.9138 H   0  0  0  0  0  0  0  0  0  0  0  0
   -9.2798   -8.7394   -6.3807 H   0  0  0  0  0  0  0  0  0  0  0  0
  -10.9547   -7.1594   -5.7437 H   0  0  0  0  0  0  0  0  0  0  0  0
   -9.4011   -6.4547   -5.2535 H   0  0  0  0  0  0  0  0  0  0  0  0
  -12.5316   -7.8730   -5.8212 H   0  0  0  0  0  0  0  0  0  0  0  0
  -14.7814   -7.9458   -6.7357 H   0  0  0  0  0  0  0  0  0  0  0  0
  -16.7095   -7.3430   -5.3622 H   0  0  0  0  0  0  0  0  0  0  0  0
  -17.5384   -6.6773   -3.3587 H   0  0  0  0  0  0  0  0  0  0  0  0
  -18.8137   -5.9484   -1.4994 H   0  0  0  0  0  0  0  0  0  0  0  0
  -17.4479   -6.0714    0.9616 H   0  0  0  0  0  0  0  0  0  0  0  0
  -19.1047   -5.3389    0.6576 H   0  0  0  0  0  0  0  0  0  0  0  0
  -15.4496   -4.5721    1.0385 H   0  0  0  0  0  0  0  0  0  0  0  0
  -14.7483   -2.2569    1.4746 H   0  0  0  0  0  0  0  0  0  0  0  0
  -18.6956   -0.8829    0.8006 H   0  0  0  0  0  0  0  0  0  0  0  0
  -19.8727   -4.1408   -0.3290 H   0  0  0  0  0  0  0  0  0  0  0  0
  -20.2003   -2.3853   -0.2863 H   0  0  0  0  0  0  0  0  0  0  0  0
  -20.6381   -2.5636    1.8730 H   0  0  0  0  0  0  0  0  0  0  0  0
  -14.0553   -6.5825   -2.0938 H   0  0  0  0  0  0  0  0  0  0  0  0
  -16.3555   -0.4451    1.3553 N   0  0  0  0  0  0  0  0  0  0  0  0
  -15.0643   -0.3588    1.7372 C   0  0  0  0  0  0  0  0  0  0  0  0
  -14.5766    0.8798    1.9997 N   0  0  0  0  0  0  0  0  0  0  0  0
  -15.3124    2.0038    1.8986 C   0  0  0  0  0  0  0  0  0  0  0  0
  -16.7261    1.9460    1.4845 C   0  0  0  0  0  0  0  0  0  0  0  0
  -17.2345    0.7335    1.2173 C   0  0  0  0  0  0  0  0  0  0  0  0
  -14.3806   -1.3646    1.8352 O   0  0  0  0  0  0  0  0  0  0  0  0
  -14.7126    3.1630    2.1864 N   0  0  0  0  0  0  0  0  0  0  0  0
  -13.7522    3.1448    2.4620 H   0  0  0  0  0  0  0  0  0  0  0  0
  -15.1955    4.0354    2.1325 H   0  0  0  0  0  0  0  0  0  0  0  0
  -17.3103    2.8427    1.4035 H   0  0  0  0  0  0  0  0  0  0  0  0
  -18.2610    0.6305    0.9107 H   0  0  0  0  0  0  0  0  0  0  0  0
  1  2  1  0
  2  3  1  0
  3  4  1  0
  4  5  2  0
  5  6  1  0
  6  7  2  0
  7  8  1  0
  8  9  2  0
  9 10  1  0
 10 11  2  0
 11 12  1  0
 12 13  1  0
 13 14  1  0
 14 15  2  0
 14 16  1  0
 16 17  1  0
 17 18  1  0
 18 19  2  0
 19 20  1  0
 20 21  2  0
 21 22  1  0
 22 23  2  0
 23 24  1  0
 24 25  1  0
 12 26  2  0
  3  7  1  0
  8 26  1  0
 18 23  1  0
  1 27  1  0
  1 28  1  0
  1 29  1  0
  2 30  1  0
  2 31  1  0
  9 32  1  0
 10 33  1  0
 11 34  1  0
 13 35  1  0
 16 36  1  0
 17 37  1  0
 17 38  1  0
 19 39  1  0
 20 40  1  0
 22 41  1  0
 24 42  1  0
 24 43  1  0
 25 44  1  0
 26 45  1  0
 46 47  1  0
 47 52  2  0
 47 48  1  0
 48 49  2  0
 49 50  1  0
 49 53  1  0
 50 51  2  0
 50 56  1  0
 46 51  1  0
 51 57  1  0
 53 54  1  0
 53 55  1  0
 21 46  1  0
M  END
>  <CHROM.1>  (5) 
65.54951943,17.31776661,-178.12150393,66.29358976,-86.42720101,92.94566280
-178.26443940,-14.94787201,-5.71806082,-1.84865519,-0.72733613,-0.06183766
0.91603111

>  <Name>  (5) 
design_18

>  <RI>  (5) 
39991000.000000

>  <Rbt.Current_Directory>  (5) 
/pylon5/mc5pksp/smaltr/gateway_workdirs/PROCESS_93251df5-8da2-4fa9-b874-71853b29d1ad

>  <Rbt.Executable>  (5) 
rbdock ($Id: //depot/dev/client3/rdock/2013.1/src/exe/rbdock.cxx#4 $)

>  <Rbt.Library>  (5) 
libRbt.so (2013.1, Build901 2013/11/27)

>  <Rbt.Parameter_File>  (5) 
/home/smaltr/software/rDock_2013.1_src//data/scripts/dock.prm

>  <Rbt.Receptor>  (5) 
/pylon5/mc5pksp/smaltr/gateway_workdirs/PROCESS_93251df5-8da2-4fa9-b874-71853b29d1ad/output/SnD-Target-Sep02/cavity/pocket_docking.prm

>  <SCORE>  (5) 
-23.387500

>  <SCORE.INTER>  (5) 
-21.667500

>  <SCORE.INTER.CONST>  (5) 
1

>  <SCORE.INTER.POLAR>  (5) 
-2.282600

>  <SCORE.INTER.REPUL>  (5) 
0.002201

>  <SCORE.INTER.ROT>  (5) 
6

>  <SCORE.INTER.VDW>  (5) 
-25.317700

>  <SCORE.INTER.norm>  (5) 
-0.833366

>  <SCORE.INTRA>  (5) 
-1.720030

>  <SCORE.INTRA.DIHEDRAL>  (5) 
-0.068457

>  <SCORE.INTRA.DIHEDRAL.0>  (5) 
6.271440

>  <SCORE.INTRA.POLAR>  (5) 
0

>  <SCORE.INTRA.POLAR.0>  (5) 
0

>  <SCORE.INTRA.REPUL>  (5) 
-0.010613

>  <SCORE.INTRA.REPUL.0>  (5) 
0.031068

>  <SCORE.INTRA.VDW>  (5) 
-1.632730

>  <SCORE.INTRA.VDW.0>  (5) 
-0.730908

>  <SCORE.INTRA.norm>  (5) 
-0.066155

>  <SCORE.RESTR>  (5) 
0

>  <SCORE.RESTR.CAVITY>  (5) 
0

>  <SCORE.RESTR.norm>  (5) 
0

>  <SCORE.SYSTEM>  (5) 
0

>  <SCORE.SYSTEM.CONST>  (5) 
0

>  <SCORE.SYSTEM.DIHEDRAL>  (5) 
0

>  <SCORE.SYSTEM.norm>  (5) 
0

>  <SCORE.heavy>  (5) 
26

>  <SCORE.norm>  (5) 
-0.899520

>  <SMILES>  (5) 
CCn1nnnc1-c1cccc(NC(=O)NCc2ccccc2CO)c1

>  <Cycle>  (5) 
228

>  <MolWeight>  (5) 
352.398000

>  <LogP>  (5) 
2.174000

>  <QED>  (5) 
0.630513

>  <SAS>  (5) 
2.0135372329820722

$$$$
design_18
     RDKit          3D

 57 60  0  0  0  0  0  0  0  0999 V2000
   -9.4244   -8.5935   -5.3102 C   0  0  0  0  0  0  0  0  0  0  0  0
  -10.1049   -7.2664   -5.0695 C   0  0  0  0  0  0  0  0  0  0  0  0
  -10.5540   -7.2160   -3.7111 N   0  0  0  0  0  0  0  0  0  0  0  0
   -9.7218   -7.2077   -2.6445 N   0  0  0  0  0  0  0  0  0  0  0  0
  -10.4021   -7.1926   -1.5317 N   0  0  0  0  0  0  0  0  0  0  0  0
  -11.6600   -7.1906   -1.8823 N   0  0  0  0  0  0  0  0  0  0  0  0
  -11.7854   -7.2043   -3.2571 C   0  0  0  0  0  0  0  0  0  0  0  0
  -13.0799   -7.2310   -3.8985 C   0  0  0  0  0  0  0  0  0  0  0  0
  -13.3628   -7.5964   -5.1726 C   0  0  0  0  0  0  0  0  0  0  0  0
  -14.6360   -7.6401   -5.6996 C   0  0  0  0  0  0  0  0  0  0  0  0
  -15.7031   -7.3081   -4.9450 C   0  0  0  0  0  0  0  0  0  0  0  0
  -15.4955   -6.9166   -3.6125 C   0  0  0  0  0  0  0  0  0  0  0  0
  -16.6525   -6.5828   -2.8829 N   0  0  0  0  0  0  0  0  0  0  0  0
  -16.6866   -6.1347   -1.5663 C   0  0  0  0  0  0  0  0  0  0  0  0
  -15.6939   -5.9695   -0.8522 O   0  0  0  0  0  0  0  0  0  0  0  0
  -17.9676   -5.8312   -0.9604 N   0  0  0  0  0  0  0  0  0  0  0  0
  -18.0501   -5.3702    0.3838 C   0  0  0  0  0  0  0  0  0  0  0  0
  -17.4800   -4.0548    0.6684 C   0  0  0  0  0  0  0  0  0  0  0  0
  -16.1829   -3.7677    0.9812 C   0  0  0  0  0  0  0  0  0  0  0  0
  -15.7903   -2.4592    1.2269 C   0  0  0  0  0  0  0  0  0  0  0  0
  -16.6679   -1.4227    1.1675 C   0  0  0  0  0  0  0  0  0  0  0  0
  -17.9708   -1.6952    0.8552 C   0  0  0  0  0  0  0  0  0  0  0  0
  -18.3710   -2.9802    0.6108 C   0  0  0  0  0  0  0  0  0  0  0  0
  -19.8066   -3.2343    0.2726 C   0  0  0  0  0  0  0  0  0  0  0  0
  -20.5477   -3.4058    1.4212 O   0  0  0  0  0  0  0  0  0  0  0  0
  -14.2099   -6.8876   -3.1288 C   0  0  0  0  0  0  0  0  0  0  0  0
   -8.4565   -8.6010   -4.8090 H   0  0  0  0  0  0  0  0  0  0  0  0
  -10.0444   -9.3976   -4.9138 H   0  0  0  0  0  0  0  0  0  0  0  0
   -9.2798   -8.7394   -6.3807 H   0  0  0  0  0  0  0  0  0  0  0  0
  -10.9547   -7.1594   -5.7437 H   0  0  0  0  0  0  0  0  0  0  0  0
   -9.4011   -6.4547   -5.2535 H   0  0  0  0  0  0  0  0  0  0  0  0
  -12.5316   -7.8730   -5.8212 H   0  0  0  0  0  0  0  0  0  0  0  0
  -14.7814   -7.9458   -6.7357 H   0  0  0  0  0  0  0  0  0  0  0  0
  -16.7095   -7.3430   -5.3622 H   0  0  0  0  0  0  0  0  0  0  0  0
  -17.5384   -6.6773   -3.3587 H   0  0  0  0  0  0  0  0  0  0  0  0
  -18.8137   -5.9484   -1.4994 H   0  0  0  0  0  0  0  0  0  0  0  0
  -17.4479   -6.0714    0.9616 H   0  0  0  0  0  0  0  0  0  0  0  0
  -19.1047   -5.3389    0.6576 H   0  0  0  0  0  0  0  0  0  0  0  0
  -15.4496   -4.5721    1.0385 H   0  0  0  0  0  0  0  0  0  0  0  0
  -16.3415   -0.4014    1.3637 H   0  0  0  0  0  0  0  0  0  0  0  0
  -18.6956   -0.8829    0.8006 H   0  0  0  0  0  0  0  0  0  0  0  0
  -19.8727   -4.1408   -0.3290 H   0  0  0  0  0  0  0  0  0  0  0  0
  -20.2003   -2.3853   -0.2863 H   0  0  0  0  0  0  0  0  0  0  0  0
  -20.6381   -2.5636    1.8730 H   0  0  0  0  0  0  0  0  0  0  0  0
  -14.0553   -6.5825   -2.0938 H   0  0  0  0  0  0  0  0  0  0  0  0
  -14.7929   -2.2656    1.4640 N   0  0  0  0  0  0  0  0  0  0  0  0
  -14.5267   -2.3627    2.7831 C   0  0  0  0  0  0  0  0  0  0  0  0
  -13.2498   -2.1275    3.1772 N   0  0  0  0  0  0  0  0  0  0  0  0
  -12.2574   -1.8063    2.3246 C   0  0  0  0  0  0  0  0  0  0  0  0
  -12.5131   -1.6912    0.8772 C   0  0  0  0  0  0  0  0  0  0  0  0
  -13.7673   -1.9198    0.4593 C   0  0  0  0  0  0  0  0  0  0  0  0
  -15.4112   -2.6523    3.5721 O   0  0  0  0  0  0  0  0  0  0  0  0
  -11.0423   -1.5985    2.8409 N   0  0  0  0  0  0  0  0  0  0  0  0
  -10.9246   -1.6897    3.8291 H   0  0  0  0  0  0  0  0  0  0  0  0
  -10.2594   -1.3580    2.2695 H   0  0  0  0  0  0  0  0  0  0  0  0
  -11.7209   -1.4363    0.1995 H   0  0  0  0  0  0  0  0  0  0  0  0
  -14.0126   -1.8501   -0.5863 H   0  0  0  0  0  0  0  0  0  0  0  0
  1  2  1  0
  2  3  1  0
  3  4  1  0
  4  5  2  0
  5  6  1  0
  6  7  2  0
  7  8  1  0
  8  9  2  0
  9 10  1  0
 10 11  2  0
 11 12  1  0
 12 13  1  0
 13 14  1  0
 14 15  2  0
 14 16  1  0
 16 17  1  0
 17 18  1  0
 18 19  2  0
 19 20  1  0
 20 21  2  0
 21 22  1  0
 22 23  2  0
 23 24  1  0
 24 25  1  0
 12 26  2  0
  3  7  1  0
  8 26  1  0
 18 23  1  0
  1 27  1  0
  1 28  1  0
  1 29  1  0
  2 30  1  0
  2 31  1  0
  9 32  1  0
 10 33  1  0
 11 34  1  0
 13 35  1  0
 16 36  1  0
 17 37  1  0
 17 38  1  0
 19 39  1  0
 21 40  1  0
 22 41  1  0
 24 42  1  0
 24 43  1  0
 25 44  1  0
 26 45  1  0
 46 47  1  0
 47 52  2  0
 47 48  1  0
 48 49  2  0
 49 50  1  0
 49 53  1  0
 50 51  2  0
 50 56  1  0
 46 51  1  0
 51 57  1  0
 53 54  1  0
 53 55  1  0
 20 46  1  0
M  END
>  <CHROM.1>  (6) 
65.54951943,17.31776661,-178.12150393,66.29358976,-86.42720101,92.94566280
-178.26443940,-14.94787201,-5.71806082,-1.84865519,-0.72733613,-0.06183766
0.91603111

>  <Name>  (6) 
design_18

>  <RI>  (6) 
39991000.000000

>  <Rbt.Current_Directory>  (6) 
/pylon5/mc5pksp/smaltr/gateway_workdirs/PROCESS_93251df5-8da2-4fa9-b874-71853b29d1ad

>  <Rbt.Executable>  (6) 
rbdock ($Id: //depot/dev/client3/rdock/2013.1/src/exe/rbdock.cxx#4 $)

>  <Rbt.Library>  (6) 
libRbt.so (2013.1, Build901 2013/11/27)

>  <Rbt.Parameter_File>  (6) 
/home/smaltr/software/rDock_2013.1_src//data/scripts/dock.prm

>  <Rbt.Receptor>  (6) 
/pylon5/mc5pksp/smaltr/gateway_workdirs/PROCESS_93251df5-8da2-4fa9-b874-71853b29d1ad/output/SnD-Target-Sep02/cavity/pocket_docking.prm

>  <SCORE>  (6) 
-23.387500

>  <SCORE.INTER>  (6) 
-21.667500

>  <SCORE.INTER.CONST>  (6) 
1

>  <SCORE.INTER.POLAR>  (6) 
-2.282600

>  <SCORE.INTER.REPUL>  (6) 
0.002201

>  <SCORE.INTER.ROT>  (6) 
6

>  <SCORE.INTER.VDW>  (6) 
-25.317700

>  <SCORE.INTER.norm>  (6) 
-0.833366

>  <SCORE.INTRA>  (6) 
-1.720030

>  <SCORE.INTRA.DIHEDRAL>  (6) 
-0.068457

>  <SCORE.INTRA.DIHEDRAL.0>  (6) 
6.271440

>  <SCORE.INTRA.POLAR>  (6) 
0

>  <SCORE.INTRA.POLAR.0>  (6) 
0

>  <SCORE.INTRA.REPUL>  (6) 
-0.010613

>  <SCORE.INTRA.REPUL.0>  (6) 
0.031068

>  <SCORE.INTRA.VDW>  (6) 
-1.632730

>  <SCORE.INTRA.VDW.0>  (6) 
-0.730908

>  <SCORE.INTRA.norm>  (6) 
-0.066155

>  <SCORE.RESTR>  (6) 
0

>  <SCORE.RESTR.CAVITY>  (6) 
0

>  <SCORE.RESTR.norm>  (6) 
0

>  <SCORE.SYSTEM>  (6) 
0

>  <SCORE.SYSTEM.CONST>  (6) 
0

>  <SCORE.SYSTEM.DIHEDRAL>  (6) 
0

>  <SCORE.SYSTEM.norm>  (6) 
0

>  <SCORE.heavy>  (6) 
26

>  <SCORE.norm>  (6) 
-0.899520

>  <SMILES>  (6) 
CCn1nnnc1-c1cccc(NC(=O)NCc2ccccc2CO)c1

>  <Cycle>  (6) 
228

>  <MolWeight>  (6) 
352.398000

>  <LogP>  (6) 
2.174000

>  <QED>  (6) 
0.630513

>  <SAS>  (6) 
2.0135372329820722

$$$$
design_18
     RDKit          3D

 57 60  0  0  0  0  0  0  0  0999 V2000
   -9.4244   -8.5935   -5.3102 C   0  0  0  0  0  0  0  0  0  0  0  0
  -10.1049   -7.2664   -5.0695 C   0  0  0  0  0  0  0  0  0  0  0  0
  -10.5540   -7.2160   -3.7111 N   0  0  0  0  0  0  0  0  0  0  0  0
   -9.7218   -7.2077   -2.6445 N   0  0  0  0  0  0  0  0  0  0  0  0
  -10.4021   -7.1926   -1.5317 N   0  0  0  0  0  0  0  0  0  0  0  0
  -11.6600   -7.1906   -1.8823 N   0  0  0  0  0  0  0  0  0  0  0  0
  -11.7854   -7.2043   -3.2571 C   0  0  0  0  0  0  0  0  0  0  0  0
  -13.0799   -7.2310   -3.8985 C   0  0  0  0  0  0  0  0  0  0  0  0
  -13.3628   -7.5964   -5.1726 C   0  0  0  0  0  0  0  0  0  0  0  0
  -14.6360   -7.6401   -5.6996 C   0  0  0  0  0  0  0  0  0  0  0  0
  -15.7031   -7.3081   -4.9450 C   0  0  0  0  0  0  0  0  0  0  0  0
  -15.4955   -6.9166   -3.6125 C   0  0  0  0  0  0  0  0  0  0  0  0
  -16.6525   -6.5828   -2.8829 N   0  0  0  0  0  0  0  0  0  0  0  0
  -16.6866   -6.1347   -1.5663 C   0  0  0  0  0  0  0  0  0  0  0  0
  -15.6939   -5.9695   -0.8522 O   0  0  0  0  0  0  0  0  0  0  0  0
  -17.9676   -5.8312   -0.9604 N   0  0  0  0  0  0  0  0  0  0  0  0
  -18.0501   -5.3702    0.3838 C   0  0  0  0  0  0  0  0  0  0  0  0
  -17.4800   -4.0548    0.6684 C   0  0  0  0  0  0  0  0  0  0  0  0
  -16.1829   -3.7677    0.9812 C   0  0  0  0  0  0  0  0  0  0  0  0
  -15.7903   -2.4592    1.2269 C   0  0  0  0  0  0  0  0  0  0  0  0
  -16.6679   -1.4227    1.1675 C   0  0  0  0  0  0  0  0  0  0  0  0
  -17.9708   -1.6952    0.8552 C   0  0  0  0  0  0  0  0  0  0  0  0
  -18.3710   -2.9802    0.6108 C   0  0  0  0  0  0  0  0  0  0  0  0
  -19.8066   -3.2343    0.2726 C   0  0  0  0  0  0  0  0  0  0  0  0
  -20.5477   -3.4058    1.4212 O   0  0  0  0  0  0  0  0  0  0  0  0
  -14.2099   -6.8876   -3.1288 C   0  0  0  0  0  0  0  0  0  0  0  0
   -8.4565   -8.6010   -4.8090 H   0  0  0  0  0  0  0  0  0  0  0  0
  -10.0444   -9.3976   -4.9138 H   0  0  0  0  0  0  0  0  0  0  0  0
   -9.2798   -8.7394   -6.3807 H   0  0  0  0  0  0  0  0  0  0  0  0
  -10.9547   -7.1594   -5.7437 H   0  0  0  0  0  0  0  0  0  0  0  0
   -9.4011   -6.4547   -5.2535 H   0  0  0  0  0  0  0  0  0  0  0  0
  -14.7814   -7.9458   -6.7357 H   0  0  0  0  0  0  0  0  0  0  0  0
  -16.7095   -7.3430   -5.3622 H   0  0  0  0  0  0  0  0  0  0  0  0
  -17.5384   -6.6773   -3.3587 H   0  0  0  0  0  0  0  0  0  0  0  0
  -18.8137   -5.9484   -1.4994 H   0  0  0  0  0  0  0  0  0  0  0  0
  -17.4479   -6.0714    0.9616 H   0  0  0  0  0  0  0  0  0  0  0  0
  -19.1047   -5.3389    0.6576 H   0  0  0  0  0  0  0  0  0  0  0  0
  -15.4496   -4.5721    1.0385 H   0  0  0  0  0  0  0  0  0  0  0  0
  -14.7483   -2.2569    1.4746 H   0  0  0  0  0  0  0  0  0  0  0  0
  -16.3415   -0.4014    1.3637 H   0  0  0  0  0  0  0  0  0  0  0  0
  -18.6956   -0.8829    0.8006 H   0  0  0  0  0  0  0  0  0  0  0  0
  -19.8727   -4.1408   -0.3290 H   0  0  0  0  0  0  0  0  0  0  0  0
  -20.2003   -2.3853   -0.2863 H   0  0  0  0  0  0  0  0  0  0  0  0
  -20.6381   -2.5636    1.8730 H   0  0  0  0  0  0  0  0  0  0  0  0
  -14.0553   -6.5825   -2.0938 H   0  0  0  0  0  0  0  0  0  0  0  0
  -12.5672   -7.8612   -5.7934 N   0  0  0  0  0  0  0  0  0  0  0  0
  -11.7100   -6.8462   -6.0290 C   0  0  0  0  0  0  0  0  0  0  0  0
  -10.6441   -7.1070   -6.8271 N   0  0  0  0  0  0  0  0  0  0  0  0
  -10.4112   -8.3115   -7.3838 C   0  0  0  0  0  0  0  0  0  0  0  0
  -11.3272   -9.4422   -7.1479 C   0  0  0  0  0  0  0  0  0  0  0  0
  -12.3896   -9.2128   -6.3612 C   0  0  0  0  0  0  0  0  0  0  0  0
  -11.9028   -5.7475   -5.5346 O   0  0  0  0  0  0  0  0  0  0  0  0
   -9.3246   -8.4374   -8.1518 N   0  0  0  0  0  0  0  0  0  0  0  0
   -8.7377   -7.6386   -8.2782 H   0  0  0  0  0  0  0  0  0  0  0  0
   -9.0886   -9.3002   -8.5958 H   0  0  0  0  0  0  0  0  0  0  0  0
  -11.1393  -10.4013   -7.5915 H   0  0  0  0  0  0  0  0  0  0  0  0
  -13.0923  -10.0012   -6.1539 H   0  0  0  0  0  0  0  0  0  0  0  0
  1  2  1  0
  2  3  1  0
  3  4  1  0
  4  5  2  0
  5  6  1  0
  6  7  2  0
  7  8  1  0
  8  9  1  0
  9 10  2  0
 10 11  1  0
 11 12  2  0
 12 13  1  0
 13 14  1  0
 14 15  2  0
 14 16  1  0
 16 17  1  0
 17 18  1  0
 18 19  2  0
 19 20  1  0
 20 21  2  0
 21 22  1  0
 22 23  2  0
 23 24  1  0
 24 25  1  0
 12 26  1  0
  3  7  1  0
  8 26  2  0
 18 23  1  0
  1 27  1  0
  1 28  1  0
  1 29  1  0
  2 30  1  0
  2 31  1  0
 10 32  1  0
 11 33  1  0
 13 34  1  0
 16 35  1  0
 17 36  1  0
 17 37  1  0
 19 38  1  0
 20 39  1  0
 21 40  1  0
 22 41  1  0
 24 42  1  0
 24 43  1  0
 25 44  1  0
 26 45  1  0
 46 47  1  0
 47 52  2  0
 47 48  1  0
 48 49  2  0
 49 50  1  0
 49 53  1  0
 50 51  2  0
 50 56  1  0
 46 51  1  0
 51 57  1  0
 53 54  1  0
 53 55  1  0
  9 46  1  0
M  END
>  <CHROM.1>  (7) 
65.54951943,17.31776661,-178.12150393,66.29358976,-86.42720101,92.94566280
-178.26443940,-14.94787201,-5.71806082,-1.84865519,-0.72733613,-0.06183766
0.91603111

>  <Name>  (7) 
design_18

>  <RI>  (7) 
39991000.000000

>  <Rbt.Current_Directory>  (7) 
/pylon5/mc5pksp/smaltr/gateway_workdirs/PROCESS_93251df5-8da2-4fa9-b874-71853b29d1ad

>  <Rbt.Executable>  (7) 
rbdock ($Id: //depot/dev/client3/rdock/2013.1/src/exe/rbdock.cxx#4 $)

>  <Rbt.Library>  (7) 
libRbt.so (2013.1, Build901 2013/11/27)

>  <Rbt.Parameter_File>  (7) 
/home/smaltr/software/rDock_2013.1_src//data/scripts/dock.prm

>  <Rbt.Receptor>  (7) 
/pylon5/mc5pksp/smaltr/gateway_workdirs/PROCESS_93251df5-8da2-4fa9-b874-71853b29d1ad/output/SnD-Target-Sep02/cavity/pocket_docking.prm

>  <SCORE>  (7) 
-23.387500

>  <SCORE.INTER>  (7) 
-21.667500

>  <SCORE.INTER.CONST>  (7) 
1

>  <SCORE.INTER.POLAR>  (7) 
-2.282600

>  <SCORE.INTER.REPUL>  (7) 
0.002201

>  <SCORE.INTER.ROT>  (7) 
6

>  <SCORE.INTER.VDW>  (7) 
-25.317700

>  <SCORE.INTER.norm>  (7) 
-0.833366

>  <SCORE.INTRA>  (7) 
-1.720030

>  <SCORE.INTRA.DIHEDRAL>  (7) 
-0.068457

>  <SCORE.INTRA.DIHEDRAL.0>  (7) 
6.271440

>  <SCORE.INTRA.POLAR>  (7) 
0

>  <SCORE.INTRA.POLAR.0>  (7) 
0

>  <SCORE.INTRA.REPUL>  (7) 
-0.010613

>  <SCORE.INTRA.REPUL.0>  (7) 
0.031068

>  <SCORE.INTRA.VDW>  (7) 
-1.632730

>  <SCORE.INTRA.VDW.0>  (7) 
-0.730908

>  <SCORE.INTRA.norm>  (7) 
-0.066155

>  <SCORE.RESTR>  (7) 
0

>  <SCORE.RESTR.CAVITY>  (7) 
0

>  <SCORE.RESTR.norm>  (7) 
0

>  <SCORE.SYSTEM>  (7) 
0

>  <SCORE.SYSTEM.CONST>  (7) 
0

>  <SCORE.SYSTEM.DIHEDRAL>  (7) 
0

>  <SCORE.SYSTEM.norm>  (7) 
0

>  <SCORE.heavy>  (7) 
26

>  <SCORE.norm>  (7) 
-0.899520

>  <SMILES>  (7) 
CCn1nnnc1-c1cccc(NC(=O)NCc2ccccc2CO)c1

>  <Cycle>  (7) 
228

>  <MolWeight>  (7) 
352.398000

>  <LogP>  (7) 
2.174000

>  <QED>  (7) 
0.630513

>  <SAS>  (7) 
2.0135372329820722

$$$$
design_18
     RDKit          3D

 57 60  0  0  0  0  0  0  0  0999 V2000
   -9.4244   -8.5935   -5.3102 C   0  0  0  0  0  0  0  0  0  0  0  0
  -10.1049   -7.2664   -5.0695 C   0  0  0  0  0  0  0  0  0  0  0  0
  -10.5540   -7.2160   -3.7111 N   0  0  0  0  0  0  0  0  0  0  0  0
   -9.7218   -7.2077   -2.6445 N   0  0  0  0  0  0  0  0  0  0  0  0
  -10.4021   -7.1926   -1.5317 N   0  0  0  0  0  0  0  0  0  0  0  0
  -11.6600   -7.1906   -1.8823 N   0  0  0  0  0  0  0  0  0  0  0  0
  -11.7854   -7.2043   -3.2571 C   0  0  0  0  0  0  0  0  0  0  0  0
  -13.0799   -7.2310   -3.8985 C   0  0  0  0  0  0  0  0  0  0  0  0
  -13.3628   -7.5964   -5.1726 C   0  0  0  0  0  0  0  0  0  0  0  0
  -14.6360   -7.6401   -5.6996 C   0  0  0  0  0  0  0  0  0  0  0  0
  -15.7031   -7.3081   -4.9450 C   0  0  0  0  0  0  0  0  0  0  0  0
  -15.4955   -6.9166   -3.6125 C   0  0  0  0  0  0  0  0  0  0  0  0
  -16.6525   -6.5828   -2.8829 N   0  0  0  0  0  0  0  0  0  0  0  0
  -16.6866   -6.1347   -1.5663 C   0  0  0  0  0  0  0  0  0  0  0  0
  -15.6939   -5.9695   -0.8522 O   0  0  0  0  0  0  0  0  0  0  0  0
  -17.9676   -5.8312   -0.9604 N   0  0  0  0  0  0  0  0  0  0  0  0
  -18.0501   -5.3702    0.3838 C   0  0  0  0  0  0  0  0  0  0  0  0
  -17.4800   -4.0548    0.6684 C   0  0  0  0  0  0  0  0  0  0  0  0
  -16.1829   -3.7677    0.9812 C   0  0  0  0  0  0  0  0  0  0  0  0
  -15.7903   -2.4592    1.2269 C   0  0  0  0  0  0  0  0  0  0  0  0
  -16.6679   -1.4227    1.1675 C   0  0  0  0  0  0  0  0  0  0  0  0
  -17.9708   -1.6952    0.8552 C   0  0  0  0  0  0  0  0  0  0  0  0
  -18.3710   -2.9802    0.6108 C   0  0  0  0  0  0  0  0  0  0  0  0
  -19.8066   -3.2343    0.2726 C   0  0  0  0  0  0  0  0  0  0  0  0
  -20.5477   -3.4058    1.4212 O   0  0  0  0  0  0  0  0  0  0  0  0
  -14.2099   -6.8876   -3.1288 C   0  0  0  0  0  0  0  0  0  0  0  0
   -8.4565   -8.6010   -4.8090 H   0  0  0  0  0  0  0  0  0  0  0  0
  -10.0444   -9.3976   -4.9138 H   0  0  0  0  0  0  0  0  0  0  0  0
   -9.2798   -8.7394   -6.3807 H   0  0  0  0  0  0  0  0  0  0  0  0
  -10.9547   -7.1594   -5.7437 H   0  0  0  0  0  0  0  0  0  0  0  0
   -9.4011   -6.4547   -5.2535 H   0  0  0  0  0  0  0  0  0  0  0  0
  -12.5316   -7.8730   -5.8212 H   0  0  0  0  0  0  0  0  0  0  0  0
  -14.7814   -7.9458   -6.7357 H   0  0  0  0  0  0  0  0  0  0  0  0
  -17.5384   -6.6773   -3.3587 H   0  0  0  0  0  0  0  0  0  0  0  0
  -18.8137   -5.9484   -1.4994 H   0  0  0  0  0  0  0  0  0  0  0  0
  -17.4479   -6.0714    0.9616 H   0  0  0  0  0  0  0  0  0  0  0  0
  -19.1047   -5.3389    0.6576 H   0  0  0  0  0  0  0  0  0  0  0  0
  -15.4496   -4.5721    1.0385 H   0  0  0  0  0  0  0  0  0  0  0  0
  -14.7483   -2.2569    1.4746 H   0  0  0  0  0  0  0  0  0  0  0  0
  -16.3415   -0.4014    1.3637 H   0  0  0  0  0  0  0  0  0  0  0  0
  -18.6956   -0.8829    0.8006 H   0  0  0  0  0  0  0  0  0  0  0  0
  -19.8727   -4.1408   -0.3290 H   0  0  0  0  0  0  0  0  0  0  0  0
  -20.2003   -2.3853   -0.2863 H   0  0  0  0  0  0  0  0  0  0  0  0
  -20.6381   -2.5636    1.8730 H   0  0  0  0  0  0  0  0  0  0  0  0
  -14.0553   -6.5825   -2.0938 H   0  0  0  0  0  0  0  0  0  0  0  0
  -16.6664   -7.3415   -5.3443 N   0  0  0  0  0  0  0  0  0  0  0  0
  -16.7025   -7.7726   -6.6223 C   0  0  0  0  0  0  0  0  0  0  0  0
  -17.9195   -7.8477   -7.2175 N   0  0  0  0  0  0  0  0  0  0  0  0
  -19.0695   -7.5154   -6.5994 C   0  0  0  0  0  0  0  0  0  0  0  0
  -19.0667   -7.0404   -5.2038 C   0  0  0  0  0  0  0  0  0  0  0  0
  -17.8765   -6.9574   -4.5900 C   0  0  0  0  0  0  0  0  0  0  0  0
  -15.6724   -8.0783   -7.2004 O   0  0  0  0  0  0  0  0  0  0  0  0
  -20.2029   -7.6337   -7.2978 N   0  0  0  0  0  0  0  0  0  0  0  0
  -20.1475   -7.9607   -8.2405 H   0  0  0  0  0  0  0  0  0  0  0  0
  -21.0921   -7.4065   -6.9043 H   0  0  0  0  0  0  0  0  0  0  0  0
  -19.9841   -6.7772   -4.7128 H   0  0  0  0  0  0  0  0  0  0  0  0
  -17.8135   -6.6169   -3.5710 H   0  0  0  0  0  0  0  0  0  0  0  0
  1  2  1  0
  2  3  1  0
  3  4  1  0
  4  5  2  0
  5  6  1  0
  6  7  2  0
  7  8  1  0
  8  9  2  0
  9 10  1  0
 10 11  2  0
 11 12  1  0
 12 13  1  0
 13 14  1  0
 14 15  2  0
 14 16  1  0
 16 17  1  0
 17 18  1  0
 18 19  2  0
 19 20  1  0
 20 21  2  0
 21 22  1  0
 22 23  2  0
 23 24  1  0
 24 25  1  0
 12 26  2  0
  3  7  1  0
  8 26  1  0
 18 23  1  0
  1 27  1  0
  1 28  1  0
  1 29  1  0
  2 30  1  0
  2 31  1  0
  9 32  1  0
 10 33  1  0
 13 34  1  0
 16 35  1  0
 17 36  1  0
 17 37  1  0
 19 38  1  0
 20 39  1  0
 21 40  1  0
 22 41  1  0
 24 42  1  0
 24 43  1  0
 25 44  1  0
 26 45  1  0
 46 47  1  0
 47 52  2  0
 47 48  1  0
 48 49  2  0
 49 50  1  0
 49 53  1  0
 50 51  2  0
 50 56  1  0
 46 51  1  0
 51 57  1  0
 53 54  1  0
 53 55  1  0
 11 46  1  0
M  END
>  <CHROM.1>  (8) 
65.54951943,17.31776661,-178.12150393,66.29358976,-86.42720101,92.94566280
-178.26443940,-14.94787201,-5.71806082,-1.84865519,-0.72733613,-0.06183766
0.91603111

>  <Name>  (8) 
design_18

>  <RI>  (8) 
39991000.000000

>  <Rbt.Current_Directory>  (8) 
/pylon5/mc5pksp/smaltr/gateway_workdirs/PROCESS_93251df5-8da2-4fa9-b874-71853b29d1ad

>  <Rbt.Executable>  (8) 
rbdock ($Id: //depot/dev/client3/rdock/2013.1/src/exe/rbdock.cxx#4 $)

>  <Rbt.Library>  (8) 
libRbt.so (2013.1, Build901 2013/11/27)

>  <Rbt.Parameter_File>  (8) 
/home/smaltr/software/rDock_2013.1_src//data/scripts/dock.prm

>  <Rbt.Receptor>  (8) 
/pylon5/mc5pksp/smaltr/gateway_workdirs/PROCESS_93251df5-8da2-4fa9-b874-71853b29d1ad/output/SnD-Target-Sep02/cavity/pocket_docking.prm

>  <SCORE>  (8) 
-23.387500

>  <SCORE.INTER>  (8) 
-21.667500

>  <SCORE.INTER.CONST>  (8) 
1

>  <SCORE.INTER.POLAR>  (8) 
-2.282600

>  <SCORE.INTER.REPUL>  (8) 
0.002201

>  <SCORE.INTER.ROT>  (8) 
6

>  <SCORE.INTER.VDW>  (8) 
-25.317700

>  <SCORE.INTER.norm>  (8) 
-0.833366

>  <SCORE.INTRA>  (8) 
-1.720030

>  <SCORE.INTRA.DIHEDRAL>  (8) 
-0.068457

>  <SCORE.INTRA.DIHEDRAL.0>  (8) 
6.271440

>  <SCORE.INTRA.POLAR>  (8) 
0

>  <SCORE.INTRA.POLAR.0>  (8) 
0

>  <SCORE.INTRA.REPUL>  (8) 
-0.010613

>  <SCORE.INTRA.REPUL.0>  (8) 
0.031068

>  <SCORE.INTRA.VDW>  (8) 
-1.632730

>  <SCORE.INTRA.VDW.0>  (8) 
-0.730908

>  <SCORE.INTRA.norm>  (8) 
-0.066155

>  <SCORE.RESTR>  (8) 
0

>  <SCORE.RESTR.CAVITY>  (8) 
0

>  <SCORE.RESTR.norm>  (8) 
0

>  <SCORE.SYSTEM>  (8) 
0

>  <SCORE.SYSTEM.CONST>  (8) 
0

>  <SCORE.SYSTEM.DIHEDRAL>  (8) 
0

>  <SCORE.SYSTEM.norm>  (8) 
0

>  <SCORE.heavy>  (8) 
26

>  <SCORE.norm>  (8) 
-0.899520

>  <SMILES>  (8) 
CCn1nnnc1-c1cccc(NC(=O)NCc2ccccc2CO)c1

>  <Cycle>  (8) 
228

>  <MolWeight>  (8) 
352.398000

>  <LogP>  (8) 
2.174000

>  <QED>  (8) 
0.630513

>  <SAS>  (8) 
2.0135372329820722

$$$$
design_18
     RDKit          3D

 57 60  0  0  0  0  0  0  0  0999 V2000
   -9.4244   -8.5935   -5.3102 C   0  0  0  0  0  0  0  0  0  0  0  0
  -10.1049   -7.2664   -5.0695 C   0  0  0  0  0  0  0  0  0  0  0  0
  -10.5540   -7.2160   -3.7111 N   0  0  0  0  0  0  0  0  0  0  0  0
   -9.7218   -7.2077   -2.6445 N   0  0  0  0  0  0  0  0  0  0  0  0
  -10.4021   -7.1926   -1.5317 N   0  0  0  0  0  0  0  0  0  0  0  0
  -11.6600   -7.1906   -1.8823 N   0  0  0  0  0  0  0  0  0  0  0  0
  -11.7854   -7.2043   -3.2571 C   0  0  0  0  0  0  0  0  0  0  0  0
  -13.0799   -7.2310   -3.8985 C   0  0  0  0  0  0  0  0  0  0  0  0
  -13.3628   -7.5964   -5.1726 C   0  0  0  0  0  0  0  0  0  0  0  0
  -14.6360   -7.6401   -5.6996 C   0  0  0  0  0  0  0  0  0  0  0  0
  -15.7031   -7.3081   -4.9450 C   0  0  0  0  0  0  0  0  0  0  0  0
  -15.4955   -6.9166   -3.6125 C   0  0  0  0  0  0  0  0  0  0  0  0
  -16.6525   -6.5828   -2.8829 N   0  0  0  0  0  0  0  0  0  0  0  0
  -16.6866   -6.1347   -1.5663 C   0  0  0  0  0  0  0  0  0  0  0  0
  -15.6939   -5.9695   -0.8522 O   0  0  0  0  0  0  0  0  0  0  0  0
  -17.9676   -5.8312   -0.9604 N   0  0  0  0  0  0  0  0  0  0  0  0
  -18.0501   -5.3702    0.3838 C   0  0  0  0  0  0  0  0  0  0  0  0
  -17.4800   -4.0548    0.6684 C   0  0  0  0  0  0  0  0  0  0  0  0
  -16.1829   -3.7677    0.9812 C   0  0  0  0  0  0  0  0  0  0  0  0
  -15.7903   -2.4592    1.2269 C   0  0  0  0  0  0  0  0  0  0  0  0
  -16.6679   -1.4227    1.1675 C   0  0  0  0  0  0  0  0  0  0  0  0
  -17.9708   -1.6952    0.8552 C   0  0  0  0  0  0  0  0  0  0  0  0
  -18.3710   -2.9802    0.6108 C   0  0  0  0  0  0  0  0  0  0  0  0
  -19.8066   -3.2343    0.2726 C   0  0  0  0  0  0  0  0  0  0  0  0
  -20.5477   -3.4058    1.4212 O   0  0  0  0  0  0  0  0  0  0  0  0
  -14.2099   -6.8876   -3.1288 C   0  0  0  0  0  0  0  0  0  0  0  0
   -8.4565   -8.6010   -4.8090 H   0  0  0  0  0  0  0  0  0  0  0  0
  -10.0444   -9.3976   -4.9138 H   0  0  0  0  0  0  0  0  0  0  0  0
   -9.2798   -8.7394   -6.3807 H   0  0  0  0  0  0  0  0  0  0  0  0
  -10.9547   -7.1594   -5.7437 H   0  0  0  0  0  0  0  0  0  0  0  0
   -9.4011   -6.4547   -5.2535 H   0  0  0  0  0  0  0  0  0  0  0  0
  -12.5316   -7.8730   -5.8212 H   0  0  0  0  0  0  0  0  0  0  0  0
  -14.7814   -7.9458   -6.7357 H   0  0  0  0  0  0  0  0  0  0  0  0
  -16.7095   -7.3430   -5.3622 H   0  0  0  0  0  0  0  0  0  0  0  0
  -17.5384   -6.6773   -3.3587 H   0  0  0  0  0  0  0  0  0  0  0  0
  -18.8137   -5.9484   -1.4994 H   0  0  0  0  0  0  0  0  0  0  0  0
  -17.4479   -6.0714    0.9616 H   0  0  0  0  0  0  0  0  0  0  0  0
  -19.1047   -5.3389    0.6576 H   0  0  0  0  0  0  0  0  0  0  0  0
  -15.4496   -4.5721    1.0385 H   0  0  0  0  0  0  0  0  0  0  0  0
  -14.7483   -2.2569    1.4746 H   0  0  0  0  0  0  0  0  0  0  0  0
  -16.3415   -0.4014    1.3637 H   0  0  0  0  0  0  0  0  0  0  0  0
  -18.6956   -0.8829    0.8006 H   0  0  0  0  0  0  0  0  0  0  0  0
  -19.8727   -4.1408   -0.3290 H   0  0  0  0  0  0  0  0  0  0  0  0
  -20.2003   -2.3853   -0.2863 H   0  0  0  0  0  0  0  0  0  0  0  0
  -20.6381   -2.5636    1.8730 H   0  0  0  0  0  0  0  0  0  0  0  0
  -14.0619   -6.5956   -2.1381 N   0  0  0  0  0  0  0  0  0  0  0  0
  -13.0072   -5.7703   -1.9742 C   0  0  0  0  0  0  0  0  0  0  0  0
  -12.7455   -5.3410   -0.7139 N   0  0  0  0  0  0  0  0  0  0  0  0
  -13.4785   -5.6978    0.3587 C   0  0  0  0  0  0  0  0  0  0  0  0
  -14.6371   -6.5981    0.2158 C   0  0  0  0  0  0  0  0  0  0  0  0
  -14.9197   -7.0372   -1.0201 C   0  0  0  0  0  0  0  0  0  0  0  0
  -12.3304   -5.4351   -2.9324 O   0  0  0  0  0  0  0  0  0  0  0  0
  -13.1149   -5.2058    1.5469 N   0  0  0  0  0  0  0  0  0  0  0  0
  -12.3213   -4.5997    1.5869 H   0  0  0  0  0  0  0  0  0  0  0  0
  -13.6117   -5.4264    2.3846 H   0  0  0  0  0  0  0  0  0  0  0  0
  -15.2204   -6.8803    1.0714 H   0  0  0  0  0  0  0  0  0  0  0  0
  -15.7541   -7.6968   -1.1846 H   0  0  0  0  0  0  0  0  0  0  0  0
  1  2  1  0
  2  3  1  0
  3  4  1  0
  4  5  2  0
  5  6  1  0
  6  7  2  0
  7  8  1  0
  8  9  2  0
  9 10  1  0
 10 11  2  0
 11 12  1  0
 12 13  1  0
 13 14  1  0
 14 15  2  0
 14 16  1  0
 16 17  1  0
 17 18  1  0
 18 19  2  0
 19 20  1  0
 20 21  2  0
 21 22  1  0
 22 23  2  0
 23 24  1  0
 24 25  1  0
 12 26  2  0
  3  7  1  0
  8 26  1  0
 18 23  1  0
  1 27  1  0
  1 28  1  0
  1 29  1  0
  2 30  1  0
  2 31  1  0
  9 32  1  0
 10 33  1  0
 11 34  1  0
 13 35  1  0
 16 36  1  0
 17 37  1  0
 17 38  1  0
 19 39  1  0
 20 40  1  0
 21 41  1  0
 22 42  1  0
 24 43  1  0
 24 44  1  0
 25 45  1  0
 46 47  1  0
 47 52  2  0
 47 48  1  0
 48 49  2  0
 49 50  1  0
 49 53  1  0
 50 51  2  0
 50 56  1  0
 46 51  1  0
 51 57  1  0
 53 54  1  0
 53 55  1  0
 26 46  1  0
M  END
>  <CHROM.1>  (9) 
65.54951943,17.31776661,-178.12150393,66.29358976,-86.42720101,92.94566280
-178.26443940,-14.94787201,-5.71806082,-1.84865519,-0.72733613,-0.06183766
0.91603111

>  <Name>  (9) 
design_18

>  <RI>  (9) 
39991000.000000

>  <Rbt.Current_Directory>  (9) 
/pylon5/mc5pksp/smaltr/gateway_workdirs/PROCESS_93251df5-8da2-4fa9-b874-71853b29d1ad

>  <Rbt.Executable>  (9) 
rbdock ($Id: //depot/dev/client3/rdock/2013.1/src/exe/rbdock.cxx#4 $)

>  <Rbt.Library>  (9) 
libRbt.so (2013.1, Build901 2013/11/27)

>  <Rbt.Parameter_File>  (9) 
/home/smaltr/software/rDock_2013.1_src//data/scripts/dock.prm

>  <Rbt.Receptor>  (9) 
/pylon5/mc5pksp/smaltr/gateway_workdirs/PROCESS_93251df5-8da2-4fa9-b874-71853b29d1ad/output/SnD-Target-Sep02/cavity/pocket_docking.prm

>  <SCORE>  (9) 
-23.387500

>  <SCORE.INTER>  (9) 
-21.667500

>  <SCORE.INTER.CONST>  (9) 
1

>  <SCORE.INTER.POLAR>  (9) 
-2.282600

>  <SCORE.INTER.REPUL>  (9) 
0.002201

>  <SCORE.INTER.ROT>  (9) 
6

>  <SCORE.INTER.VDW>  (9) 
-25.317700

>  <SCORE.INTER.norm>  (9) 
-0.833366

>  <SCORE.INTRA>  (9) 
-1.720030

>  <SCORE.INTRA.DIHEDRAL>  (9) 
-0.068457

>  <SCORE.INTRA.DIHEDRAL.0>  (9) 
6.271440

>  <SCORE.INTRA.POLAR>  (9) 
0

>  <SCORE.INTRA.POLAR.0>  (9) 
0

>  <SCORE.INTRA.REPUL>  (9) 
-0.010613

>  <SCORE.INTRA.REPUL.0>  (9) 
0.031068

>  <SCORE.INTRA.VDW>  (9) 
-1.632730

>  <SCORE.INTRA.VDW.0>  (9) 
-0.730908

>  <SCORE.INTRA.norm>  (9) 
-0.066155

>  <SCORE.RESTR>  (9) 
0

>  <SCORE.RESTR.CAVITY>  (9) 
0

>  <SCORE.RESTR.norm>  (9) 
0

>  <SCORE.SYSTEM>  (9) 
0

>  <SCORE.SYSTEM.CONST>  (9) 
0

>  <SCORE.SYSTEM.DIHEDRAL>  (9) 
0

>  <SCORE.SYSTEM.norm>  (9) 
0

>  <SCORE.heavy>  (9) 
26

>  <SCORE.norm>  (9) 
-0.899520

>  <SMILES>  (9) 
CCn1nnnc1-c1cccc(NC(=O)NCc2ccccc2CO)c1

>  <Cycle>  (9) 
228

>  <MolWeight>  (9) 
352.398000

>  <LogP>  (9) 
2.174000

>  <QED>  (9) 
0.630513

>  <SAS>  (9) 
2.0135372329820722

$$$$
design_18
     RDKit          3D

 57 60  0  0  0  0  0  0  0  0999 V2000
   -9.4244   -8.5935   -5.3102 C   0  0  0  0  0  0  0  0  0  0  0  0
  -10.1049   -7.2664   -5.0695 C   0  0  0  0  0  0  0  0  0  0  0  0
  -10.5540   -7.2160   -3.7111 N   0  0  0  0  0  0  0  0  0  0  0  0
   -9.7218   -7.2077   -2.6445 N   0  0  0  0  0  0  0  0  0  0  0  0
  -10.4021   -7.1926   -1.5317 N   0  0  0  0  0  0  0  0  0  0  0  0
  -11.6600   -7.1906   -1.8823 N   0  0  0  0  0  0  0  0  0  0  0  0
  -11.7854   -7.2043   -3.2571 C   0  0  0  0  0  0  0  0  0  0  0  0
  -13.0799   -7.2310   -3.8985 C   0  0  0  0  0  0  0  0  0  0  0  0
  -13.3628   -7.5964   -5.1726 C   0  0  0  0  0  0  0  0  0  0  0  0
  -14.6360   -7.6401   -5.6996 C   0  0  0  0  0  0  0  0  0  0  0  0
  -15.7031   -7.3081   -4.9450 C   0  0  0  0  0  0  0  0  0  0  0  0
  -15.4955   -6.9166   -3.6125 C   0  0  0  0  0  0  0  0  0  0  0  0
  -16.6525   -6.5828   -2.8829 N   0  0  0  0  0  0  0  0  0  0  0  0
  -16.6866   -6.1347   -1.5663 C   0  0  0  0  0  0  0  0  0  0  0  0
  -15.6939   -5.9695   -0.8522 O   0  0  0  0  0  0  0  0  0  0  0  0
  -17.9676   -5.8312   -0.9604 N   0  0  0  0  0  0  0  0  0  0  0  0
  -18.0501   -5.3702    0.3838 C   0  0  0  0  0  0  0  0  0  0  0  0
  -17.4800   -4.0548    0.6684 C   0  0  0  0  0  0  0  0  0  0  0  0
  -16.1829   -3.7677    0.9812 C   0  0  0  0  0  0  0  0  0  0  0  0
  -15.7903   -2.4592    1.2269 C   0  0  0  0  0  0  0  0  0  0  0  0
  -16.6679   -1.4227    1.1675 C   0  0  0  0  0  0  0  0  0  0  0  0
  -17.9708   -1.6952    0.8552 C   0  0  0  0  0  0  0  0  0  0  0  0
  -18.3710   -2.9802    0.6108 C   0  0  0  0  0  0  0  0  0  0  0  0
  -19.8066   -3.2343    0.2726 C   0  0  0  0  0  0  0  0  0  0  0  0
  -20.5477   -3.4058    1.4212 O   0  0  0  0  0  0  0  0  0  0  0  0
  -14.2099   -6.8876   -3.1288 C   0  0  0  0  0  0  0  0  0  0  0  0
   -8.4565   -8.6010   -4.8090 H   0  0  0  0  0  0  0  0  0  0  0  0
  -10.0444   -9.3976   -4.9138 H   0  0  0  0  0  0  0  0  0  0  0  0
   -9.2798   -8.7394   -6.3807 H   0  0  0  0  0  0  0  0  0  0  0  0
  -10.9547   -7.1594   -5.7437 H   0  0  0  0  0  0  0  0  0  0  0  0
   -9.4011   -6.4547   -5.2535 H   0  0  0  0  0  0  0  0  0  0  0  0
  -12.5316   -7.8730   -5.8212 H   0  0  0  0  0  0  0  0  0  0  0  0
  -14.7814   -7.9458   -6.7357 H   0  0  0  0  0  0  0  0  0  0  0  0
  -16.7095   -7.3430   -5.3622 H   0  0  0  0  0  0  0  0  0  0  0  0
  -17.5384   -6.6773   -3.3587 H   0  0  0  0  0  0  0  0  0  0  0  0
  -18.8137   -5.9484   -1.4994 H   0  0  0  0  0  0  0  0  0  0  0  0
  -17.4479   -6.0714    0.9616 H   0  0  0  0  0  0  0  0  0  0  0  0
  -19.1047   -5.3389    0.6576 H   0  0  0  0  0  0  0  0  0  0  0  0
  -15.4496   -4.5721    1.0385 H   0  0  0  0  0  0  0  0  0  0  0  0
  -14.7483   -2.2569    1.4746 H   0  0  0  0  0  0  0  0  0  0  0  0
  -16.3415   -0.4014    1.3637 H   0  0  0  0  0  0  0  0  0  0  0  0
  -19.8727   -4.1408   -0.3290 H   0  0  0  0  0  0  0  0  0  0  0  0
  -20.2003   -2.3853   -0.2863 H   0  0  0  0  0  0  0  0  0  0  0  0
  -20.6381   -2.5636    1.8730 H   0  0  0  0  0  0  0  0  0  0  0  0
  -14.0553   -6.5825   -2.0938 H   0  0  0  0  0  0  0  0  0  0  0  0
  -18.6646   -0.9177    0.8029 N   0  0  0  0  0  0  0  0  0  0  0  0
  -19.2381   -0.6300    1.9898 C   0  0  0  0  0  0  0  0  0  0  0  0
  -20.1526    0.3721    2.0102 N   0  0  0  0  0  0  0  0  0  0  0  0
  -20.5059    1.0764    0.9175 C   0  0  0  0  0  0  0  0  0  0  0  0
  -19.8997    0.7885   -0.3951 C   0  0  0  0  0  0  0  0  0  0  0  0
  -18.9908   -0.1972   -0.4442 C   0  0  0  0  0  0  0  0  0  0  0  0
  -18.9323   -1.2560    2.9915 O   0  0  0  0  0  0  0  0  0  0  0  0
  -21.4205    2.0387    1.0717 N   0  0  0  0  0  0  0  0  0  0  0  0
  -21.7991    2.1919    1.9838 H   0  0  0  0  0  0  0  0  0  0  0  0
  -21.7298    2.6012    0.3068 H   0  0  0  0  0  0  0  0  0  0  0  0
  -20.1817    1.3515   -1.2642 H   0  0  0  0  0  0  0  0  0  0  0  0
  -18.5152   -0.4516   -1.3756 H   0  0  0  0  0  0  0  0  0  0  0  0
  1  2  1  0
  2  3  1  0
  3  4  1  0
  4  5  2  0
  5  6  1  0
  6  7  2  0
  7  8  1  0
  8  9  2  0
  9 10  1  0
 10 11  2  0
 11 12  1  0
 12 13  1  0
 13 14  1  0
 14 15  2  0
 14 16  1  0
 16 17  1  0
 17 18  1  0
 18 19  2  0
 19 20  1  0
 20 21  2  0
 21 22  1  0
 22 23  2  0
 23 24  1  0
 24 25  1  0
 12 26  2  0
  3  7  1  0
  8 26  1  0
 18 23  1  0
  1 27  1  0
  1 28  1  0
  1 29  1  0
  2 30  1  0
  2 31  1  0
  9 32  1  0
 10 33  1  0
 11 34  1  0
 13 35  1  0
 16 36  1  0
 17 37  1  0
 17 38  1  0
 19 39  1  0
 20 40  1  0
 21 41  1  0
 24 42  1  0
 24 43  1  0
 25 44  1  0
 26 45  1  0
 46 47  1  0
 47 52  2  0
 47 48  1  0
 48 49  2  0
 49 50  1  0
 49 53  1  0
 50 51  2  0
 50 56  1  0
 46 51  1  0
 51 57  1  0
 53 54  1  0
 53 55  1  0
 22 46  1  0
M  END
>  <CHROM.1>  (10) 
65.54951943,17.31776661,-178.12150393,66.29358976,-86.42720101,92.94566280
-178.26443940,-14.94787201,-5.71806082,-1.84865519,-0.72733613,-0.06183766
0.91603111

>  <Name>  (10) 
design_18

>  <RI>  (10) 
39991000.000000

>  <Rbt.Current_Directory>  (10) 
/pylon5/mc5pksp/smaltr/gateway_workdirs/PROCESS_93251df5-8da2-4fa9-b874-71853b29d1ad

>  <Rbt.Executable>  (10) 
rbdock ($Id: //depot/dev/client3/rdock/2013.1/src/exe/rbdock.cxx#4 $)

>  <Rbt.Library>  (10) 
libRbt.so (2013.1, Build901 2013/11/27)

>  <Rbt.Parameter_File>  (10) 
/home/smaltr/software/rDock_2013.1_src//data/scripts/dock.prm

>  <Rbt.Receptor>  (10) 
/pylon5/mc5pksp/smaltr/gateway_workdirs/PROCESS_93251df5-8da2-4fa9-b874-71853b29d1ad/output/SnD-Target-Sep02/cavity/pocket_docking.prm

>  <SCORE>  (10) 
-23.387500

>  <SCORE.INTER>  (10) 
-21.667500

>  <SCORE.INTER.CONST>  (10) 
1

>  <SCORE.INTER.POLAR>  (10) 
-2.282600

>  <SCORE.INTER.REPUL>  (10) 
0.002201

>  <SCORE.INTER.ROT>  (10) 
6

>  <SCORE.INTER.VDW>  (10) 
-25.317700

>  <SCORE.INTER.norm>  (10) 
-0.833366

>  <SCORE.INTRA>  (10) 
-1.720030

>  <SCORE.INTRA.DIHEDRAL>  (10) 
-0.068457

>  <SCORE.INTRA.DIHEDRAL.0>  (10) 
6.271440

>  <SCORE.INTRA.POLAR>  (10) 
0

>  <SCORE.INTRA.POLAR.0>  (10) 
0

>  <SCORE.INTRA.REPUL>  (10) 
-0.010613

>  <SCORE.INTRA.REPUL.0>  (10) 
0.031068

>  <SCORE.INTRA.VDW>  (10) 
-1.632730

>  <SCORE.INTRA.VDW.0>  (10) 
-0.730908

>  <SCORE.INTRA.norm>  (10) 
-0.066155

>  <SCORE.RESTR>  (10) 
0

>  <SCORE.RESTR.CAVITY>  (10) 
0

>  <SCORE.RESTR.norm>  (10) 
0

>  <SCORE.SYSTEM>  (10) 
0

>  <SCORE.SYSTEM.CONST>  (10) 
0

>  <SCORE.SYSTEM.DIHEDRAL>  (10) 
0

>  <SCORE.SYSTEM.norm>  (10) 
0

>  <SCORE.heavy>  (10) 
26

>  <SCORE.norm>  (10) 
-0.899520

>  <SMILES>  (10) 
CCn1nnnc1-c1cccc(NC(=O)NCc2ccccc2CO)c1

>  <Cycle>  (10) 
228

>  <MolWeight>  (10) 
352.398000

>  <LogP>  (10) 
2.174000

>  <QED>  (10) 
0.630513

>  <SAS>  (10) 
2.0135372329820722

$$$$
design_18
     RDKit          3D

 57 60  0  0  0  0  0  0  0  0999 V2000
   -9.4244   -8.5935   -5.3102 C   0  0  0  0  0  0  0  0  0  0  0  0
  -10.1049   -7.2664   -5.0695 C   0  0  0  0  0  0  0  0  0  0  0  0
  -10.5540   -7.2160   -3.7111 N   0  0  0  0  0  0  0  0  0  0  0  0
   -9.7218   -7.2077   -2.6445 N   0  0  0  0  0  0  0  0  0  0  0  0
  -10.4021   -7.1926   -1.5317 N   0  0  0  0  0  0  0  0  0  0  0  0
  -11.6600   -7.1906   -1.8823 N   0  0  0  0  0  0  0  0  0  0  0  0
  -11.7854   -7.2043   -3.2571 C   0  0  0  0  0  0  0  0  0  0  0  0
  -13.0799   -7.2310   -3.8985 C   0  0  0  0  0  0  0  0  0  0  0  0
  -13.3628   -7.5964   -5.1726 C   0  0  0  0  0  0  0  0  0  0  0  0
  -14.6360   -7.6401   -5.6996 C   0  0  0  0  0  0  0  0  0  0  0  0
  -15.7031   -7.3081   -4.9450 C   0  0  0  0  0  0  0  0  0  0  0  0
  -15.4955   -6.9166   -3.6125 C   0  0  0  0  0  0  0  0  0  0  0  0
  -16.6525   -6.5828   -2.8829 N   0  0  0  0  0  0  0  0  0  0  0  0
  -16.6866   -6.1347   -1.5663 C   0  0  0  0  0  0  0  0  0  0  0  0
  -15.6939   -5.9695   -0.8522 O   0  0  0  0  0  0  0  0  0  0  0  0
  -17.9676   -5.8312   -0.9604 N   0  0  0  0  0  0  0  0  0  0  0  0
  -18.0501   -5.3702    0.3838 C   0  0  0  0  0  0  0  0  0  0  0  0
  -17.4800   -4.0548    0.6684 C   0  0  0  0  0  0  0  0  0  0  0  0
  -16.1829   -3.7677    0.9812 C   0  0  0  0  0  0  0  0  0  0  0  0
  -15.7903   -2.4592    1.2269 C   0  0  0  0  0  0  0  0  0  0  0  0
  -16.6679   -1.4227    1.1675 C   0  0  0  0  0  0  0  0  0  0  0  0
  -17.9708   -1.6952    0.8552 C   0  0  0  0  0  0  0  0  0  0  0  0
  -18.3710   -2.9802    0.6108 C   0  0  0  0  0  0  0  0  0  0  0  0
  -19.8066   -3.2343    0.2726 C   0  0  0  0  0  0  0  0  0  0  0  0
  -20.5477   -3.4058    1.4212 O   0  0  0  0  0  0  0  0  0  0  0  0
  -14.2099   -6.8876   -3.1288 C   0  0  0  0  0  0  0  0  0  0  0  0
   -8.4565   -8.6010   -4.8090 H   0  0  0  0  0  0  0  0  0  0  0  0
  -10.0444   -9.3976   -4.9138 H   0  0  0  0  0  0  0  0  0  0  0  0
   -9.2798   -8.7394   -6.3807 H   0  0  0  0  0  0  0  0  0  0  0  0
  -10.9547   -7.1594   -5.7437 H   0  0  0  0  0  0  0  0  0  0  0  0
   -9.4011   -6.4547   -5.2535 H   0  0  0  0  0  0  0  0  0  0  0  0
  -12.5316   -7.8730   -5.8212 H   0  0  0  0  0  0  0  0  0  0  0  0
  -14.7814   -7.9458   -6.7357 H   0  0  0  0  0  0  0  0  0  0  0  0
  -16.7095   -7.3430   -5.3622 H   0  0  0  0  0  0  0  0  0  0  0  0
  -17.5384   -6.6773   -3.3587 H   0  0  0  0  0  0  0  0  0  0  0  0
  -18.8137   -5.9484   -1.4994 H   0  0  0  0  0  0  0  0  0  0  0  0
  -17.4479   -6.0714    0.9616 H   0  0  0  0  0  0  0  0  0  0  0  0
  -19.1047   -5.3389    0.6576 H   0  0  0  0  0  0  0  0  0  0  0  0
  -14.7483   -2.2569    1.4746 H   0  0  0  0  0  0  0  0  0  0  0  0
  -16.3415   -0.4014    1.3637 H   0  0  0  0  0  0  0  0  0  0  0  0
  -18.6956   -0.8829    0.8006 H   0  0  0  0  0  0  0  0  0  0  0  0
  -19.8727   -4.1408   -0.3290 H   0  0  0  0  0  0  0  0  0  0  0  0
  -20.2003   -2.3853   -0.2863 H   0  0  0  0  0  0  0  0  0  0  0  0
  -20.6381   -2.5636    1.8730 H   0  0  0  0  0  0  0  0  0  0  0  0
  -14.0553   -6.5825   -2.0938 H   0  0  0  0  0  0  0  0  0  0  0  0
  -15.4810   -4.5377    1.0360 N   0  0  0  0  0  0  0  0  0  0  0  0
  -14.8355   -4.7588   -0.1279 C   0  0  0  0  0  0  0  0  0  0  0  0
  -13.9027   -5.7440   -0.1425 N   0  0  0  0  0  0  0  0  0  0  0  0
  -13.6012   -6.4963    0.9337 C   0  0  0  0  0  0  0  0  0  0  0  0
  -14.2872   -6.2820    2.2209 C   0  0  0  0  0  0  0  0  0  0  0  0
  -15.2140   -5.3128    2.2643 C   0  0  0  0  0  0  0  0  0  0  0  0
  -15.0937   -4.0888   -1.1144 O   0  0  0  0  0  0  0  0  0  0  0  0
  -12.6624   -7.4362    0.7872 N   0  0  0  0  0  0  0  0  0  0  0  0
  -12.2291   -7.5387   -0.1075 H   0  0  0  0  0  0  0  0  0  0  0  0
  -12.3871   -8.0301    1.5412 H   0  0  0  0  0  0  0  0  0  0  0  0
  -14.0447   -6.8816    3.0774 H   0  0  0  0  0  0  0  0  0  0  0  0
  -15.7470   -5.1116    3.1774 H   0  0  0  0  0  0  0  0  0  0  0  0
  1  2  1  0
  2  3  1  0
  3  4  1  0
  4  5  2  0
  5  6  1  0
  6  7  2  0
  7  8  1  0
  8  9  2  0
  9 10  1  0
 10 11  2  0
 11 12  1  0
 12 13  1  0
 13 14  1  0
 14 15  2  0
 14 16  1  0
 16 17  1  0
 17 18  1  0
 18 19  1  0
 19 20  2  0
 20 21  1  0
 21 22  2  0
 22 23  1  0
 23 24  1  0
 24 25  1  0
 12 26  2  0
  3  7  1  0
  8 26  1  0
 18 23  2  0
  1 27  1  0
  1 28  1  0
  1 29  1  0
  2 30  1  0
  2 31  1  0
  9 32  1  0
 10 33  1  0
 11 34  1  0
 13 35  1  0
 16 36  1  0
 17 37  1  0
 17 38  1  0
 20 39  1  0
 21 40  1  0
 22 41  1  0
 24 42  1  0
 24 43  1  0
 25 44  1  0
 26 45  1  0
 46 47  1  0
 47 52  2  0
 47 48  1  0
 48 49  2  0
 49 50  1  0
 49 53  1  0
 50 51  2  0
 50 56  1  0
 46 51  1  0
 51 57  1  0
 53 54  1  0
 53 55  1  0
 19 46  1  0
M  END
>  <CHROM.1>  (11) 
65.54951943,17.31776661,-178.12150393,66.29358976,-86.42720101,92.94566280
-178.26443940,-14.94787201,-5.71806082,-1.84865519,-0.72733613,-0.06183766
0.91603111

>  <Name>  (11) 
design_18

>  <RI>  (11) 
39991000.000000

>  <Rbt.Current_Directory>  (11) 
/pylon5/mc5pksp/smaltr/gateway_workdirs/PROCESS_93251df5-8da2-4fa9-b874-71853b29d1ad

>  <Rbt.Executable>  (11) 
rbdock ($Id: //depot/dev/client3/rdock/2013.1/src/exe/rbdock.cxx#4 $)

>  <Rbt.Library>  (11) 
libRbt.so (2013.1, Build901 2013/11/27)

>  <Rbt.Parameter_File>  (11) 
/home/smaltr/software/rDock_2013.1_src//data/scripts/dock.prm

>  <Rbt.Receptor>  (11) 
/pylon5/mc5pksp/smaltr/gateway_workdirs/PROCESS_93251df5-8da2-4fa9-b874-71853b29d1ad/output/SnD-Target-Sep02/cavity/pocket_docking.prm

>  <SCORE>  (11) 
-23.387500

>  <SCORE.INTER>  (11) 
-21.667500

>  <SCORE.INTER.CONST>  (11) 
1

>  <SCORE.INTER.POLAR>  (11) 
-2.282600

>  <SCORE.INTER.REPUL>  (11) 
0.002201

>  <SCORE.INTER.ROT>  (11) 
6

>  <SCORE.INTER.VDW>  (11) 
-25.317700

>  <SCORE.INTER.norm>  (11) 
-0.833366

>  <SCORE.INTRA>  (11) 
-1.720030

>  <SCORE.INTRA.DIHEDRAL>  (11) 
-0.068457

>  <SCORE.INTRA.DIHEDRAL.0>  (11) 
6.271440

>  <SCORE.INTRA.POLAR>  (11) 
0

>  <SCORE.INTRA.POLAR.0>  (11) 
0

>  <SCORE.INTRA.REPUL>  (11) 
-0.010613

>  <SCORE.INTRA.REPUL.0>  (11) 
0.031068

>  <SCORE.INTRA.VDW>  (11) 
-1.632730

>  <SCORE.INTRA.VDW.0>  (11) 
-0.730908

>  <SCORE.INTRA.norm>  (11) 
-0.066155

>  <SCORE.RESTR>  (11) 
0

>  <SCORE.RESTR.CAVITY>  (11) 
0

>  <SCORE.RESTR.norm>  (11) 
0

>  <SCORE.SYSTEM>  (11) 
0

>  <SCORE.SYSTEM.CONST>  (11) 
0

>  <SCORE.SYSTEM.DIHEDRAL>  (11) 
0

>  <SCORE.SYSTEM.norm>  (11) 
0

>  <SCORE.heavy>  (11) 
26

>  <SCORE.norm>  (11) 
-0.899520

>  <SMILES>  (11) 
CCn1nnnc1-c1cccc(NC(=O)NCc2ccccc2CO)c1

>  <Cycle>  (11) 
228

>  <MolWeight>  (11) 
352.398000

>  <LogP>  (11) 
2.174000

>  <QED>  (11) 
0.630513

>  <SAS>  (11) 
2.0135372329820722

$$$$
design_18
     RDKit          3D

 60 64  0  0  0  0  0  0  0  0999 V2000
   -9.4244   -8.5935   -5.3102 C   0  0  0  0  0  0  0  0  0  0  0  0
  -10.1049   -7.2664   -5.0695 C   0  0  0  0  0  0  0  0  0  0  0  0
  -10.5540   -7.2160   -3.7111 N   0  0  0  0  0  0  0  0  0  0  0  0
   -9.7218   -7.2077   -2.6445 N   0  0  0  0  0  0  0  0  0  0  0  0
  -10.4021   -7.1926   -1.5317 N   0  0  0  0  0  0  0  0  0  0  0  0
  -11.6600   -7.1906   -1.8823 N   0  0  0  0  0  0  0  0  0  0  0  0
  -11.7854   -7.2043   -3.2571 C   0  0  0  0  0  0  0  0  0  0  0  0
  -13.0799   -7.2310   -3.8985 C   0  0  0  0  0  0  0  0  0  0  0  0
  -13.3628   -7.5964   -5.1726 C   0  0  0  0  0  0  0  0  0  0  0  0
  -14.6360   -7.6401   -5.6996 C   0  0  0  0  0  0  0  0  0  0  0  0
  -15.7031   -7.3081   -4.9450 C   0  0  0  0  0  0  0  0  0  0  0  0
  -15.4955   -6.9166   -3.6125 C   0  0  0  0  0  0  0  0  0  0  0  0
  -16.6525   -6.5828   -2.8829 N   0  0  0  0  0  0  0  0  0  0  0  0
  -16.6866   -6.1347   -1.5663 C   0  0  0  0  0  0  0  0  0  0  0  0
  -15.6939   -5.9695   -0.8522 O   0  0  0  0  0  0  0  0  0  0  0  0
  -17.9676   -5.8312   -0.9604 N   0  0  0  0  0  0  0  0  0  0  0  0
  -18.0501   -5.3702    0.3838 C   0  0  0  0  0  0  0  0  0  0  0  0
  -17.4800   -4.0548    0.6684 C   0  0  0  0  0  0  0  0  0  0  0  0
  -16.1829   -3.7677    0.9812 C   0  0  0  0  0  0  0  0  0  0  0  0
  -15.7903   -2.4592    1.2269 C   0  0  0  0  0  0  0  0  0  0  0  0
  -16.6679   -1.4227    1.1675 C   0  0  0  0  0  0  0  0  0  0  0  0
  -17.9708   -1.6952    0.8552 C   0  0  0  0  0  0  0  0  0  0  0  0
  -18.3710   -2.9802    0.6108 C   0  0  0  0  0  0  0  0  0  0  0  0
  -19.8066   -3.2343    0.2726 C   0  0  0  0  0  0  0  0  0  0  0  0
  -20.5477   -3.4058    1.4212 O   0  0  0  0  0  0  0  0  0  0  0  0
  -14.2099   -6.8876   -3.1288 C   0  0  0  0  0  0  0  0  0  0  0  0
   -8.4565   -8.6010   -4.8090 H   0  0  0  0  0  0  0  0  0  0  0  0
  -10.0444   -9.3976   -4.9138 H   0  0  0  0  0  0  0  0  0  0  0  0
   -9.2798   -8.7394   -6.3807 H   0  0  0  0  0  0  0  0  0  0  0  0
  -10.9547   -7.1594   -5.7437 H   0  0  0  0  0  0  0  0  0  0  0  0
   -9.4011   -6.4547   -5.2535 H   0  0  0  0  0  0  0  0  0  0  0  0
  -12.5316   -7.8730   -5.8212 H   0  0  0  0  0  0  0  0  0  0  0  0
  -14.7814   -7.9458   -6.7357 H   0  0  0  0  0  0  0  0  0  0  0  0
  -16.7095   -7.3430   -5.3622 H   0  0  0  0  0  0  0  0  0  0  0  0
  -17.5384   -6.6773   -3.3587 H   0  0  0  0  0  0  0  0  0  0  0  0
  -17.4479   -6.0714    0.9616 H   0  0  0  0  0  0  0  0  0  0  0  0
  -19.1047   -5.3389    0.6576 H   0  0  0  0  0  0  0  0  0  0  0  0
  -15.4496   -4.5721    1.0385 H   0  0  0  0  0  0  0  0  0  0  0  0
  -14.7483   -2.2569    1.4746 H   0  0  0  0  0  0  0  0  0  0  0  0
  -16.3415   -0.4014    1.3637 H   0  0  0  0  0  0  0  0  0  0  0  0
  -18.6956   -0.8829    0.8006 H   0  0  0  0  0  0  0  0  0  0  0  0
  -19.8727   -4.1408   -0.3290 H   0  0  0  0  0  0  0  0  0  0  0  0
  -20.2003   -2.3853   -0.2863 H   0  0  0  0  0  0  0  0  0  0  0  0
  -20.6381   -2.5636    1.8730 H   0  0  0  0  0  0  0  0  0  0  0  0
  -14.0553   -6.5825   -2.0938 H   0  0  0  0  0  0  0  0  0  0  0  0
  -18.8074   -5.9475   -1.4954 N   0  0  0  0  0  0  0  0  0  0  0  0
  -18.8038   -5.8410   -2.8476 C   0  0  0  0  0  0  0  0  0  0  0  0
  -19.9379   -5.9983   -3.5681 N   0  0  0  0  0  0  0  0  0  0  0  0
  -21.1497   -6.2872   -2.7978 C   0  0  0  0  0  0  0  0  0  0  0  0
  -21.0927   -6.3840   -1.4119 C   0  0  0  0  0  0  0  0  0  0  0  0
  -19.8967   -6.2113   -0.7339 C   0  0  0  0  0  0  0  0  0  0  0  0
  -22.3445   -6.6545   -0.9646 N   0  0  0  0  0  0  0  0  0  0  0  0
  -23.1211   -6.7152   -2.0652 C   0  0  0  0  0  0  0  0  0  0  0  0
  -22.4183   -6.4946   -3.1960 N   0  0  0  0  0  0  0  0  0  0  0  0
  -17.6600   -5.5770   -3.4714 N   0  0  0  0  0  0  0  0  0  0  0  0
  -19.8307   -6.2936    0.4841 O   0  0  0  0  0  0  0  0  0  0  0  0
  -22.7476   -6.4848   -4.1178 H   0  0  0  0  0  0  0  0  0  0  0  0
  -17.6744   -5.5025   -4.4675 H   0  0  0  0  0  0  0  0  0  0  0  0
  -16.8017   -5.4542   -2.9776 H   0  0  0  0  0  0  0  0  0  0  0  0
  -24.1821   -6.9176   -2.0318 H   0  0  0  0  0  0  0  0  0  0  0  0
  1  2  1  0
  2  3  1  0
  3  4  1  0
  4  5  2  0
  5  6  1  0
  6  7  2  0
  7  8  1  0
  8  9  2  0
  9 10  1  0
 10 11  2  0
 11 12  1  0
 12 13  1  0
 13 14  1  0
 14 15  2  0
 14 16  1  0
 16 17  1  0
 17 18  1  0
 18 19  2  0
 19 20  1  0
 20 21  2  0
 21 22  1  0
 22 23  2  0
 23 24  1  0
 24 25  1  0
 12 26  2  0
  3  7  1  0
  8 26  1  0
 18 23  1  0
  1 27  1  0
  1 28  1  0
  1 29  1  0
  2 30  1  0
  2 31  1  0
  9 32  1  0
 10 33  1  0
 11 34  1  0
 13 35  1  0
 17 36  1  0
 17 37  1  0
 19 38  1  0
 20 39  1  0
 21 40  1  0
 22 41  1  0
 24 42  1  0
 24 43  1  0
 25 44  1  0
 26 45  1  0
 46 47  1  0
 47 48  2  0
 47 55  1  0
 48 49  1  0
 49 50  2  0
 50 51  1  0
 50 52  1  0
 46 51  1  0
 52 53  2  0
 53 60  1  0
 49 54  1  0
 53 54  1  0
 54 57  1  0
 55 58  1  0
 51 56  2  0
 55 59  1  0
 16 46  1  0
M  END
>  <CHROM.1>  (12) 
65.54951943,17.31776661,-178.12150393,66.29358976,-86.42720101,92.94566280
-178.26443940,-14.94787201,-5.71806082,-1.84865519,-0.72733613,-0.06183766
0.91603111

>  <Name>  (12) 
design_18

>  <RI>  (12) 
39991000.000000

>  <Rbt.Current_Directory>  (12) 
/pylon5/mc5pksp/smaltr/gateway_workdirs/PROCESS_93251df5-8da2-4fa9-b874-71853b29d1ad

>  <Rbt.Executable>  (12) 
rbdock ($Id: //depot/dev/client3/rdock/2013.1/src/exe/rbdock.cxx#4 $)

>  <Rbt.Library>  (12) 
libRbt.so (2013.1, Build901 2013/11/27)

>  <Rbt.Parameter_File>  (12) 
/home/smaltr/software/rDock_2013.1_src//data/scripts/dock.prm

>  <Rbt.Receptor>  (12) 
/pylon5/mc5pksp/smaltr/gateway_workdirs/PROCESS_93251df5-8da2-4fa9-b874-71853b29d1ad/output/SnD-Target-Sep02/cavity/pocket_docking.prm

>  <SCORE>  (12) 
-23.387500

>  <SCORE.INTER>  (12) 
-21.667500

>  <SCORE.INTER.CONST>  (12) 
1

>  <SCORE.INTER.POLAR>  (12) 
-2.282600

>  <SCORE.INTER.REPUL>  (12) 
0.002201

>  <SCORE.INTER.ROT>  (12) 
6

>  <SCORE.INTER.VDW>  (12) 
-25.317700

>  <SCORE.INTER.norm>  (12) 
-0.833366

>  <SCORE.INTRA>  (12) 
-1.720030

>  <SCORE.INTRA.DIHEDRAL>  (12) 
-0.068457

>  <SCORE.INTRA.DIHEDRAL.0>  (12) 
6.271440

>  <SCORE.INTRA.POLAR>  (12) 
0

>  <SCORE.INTRA.POLAR.0>  (12) 
0

>  <SCORE.INTRA.REPUL>  (12) 
-0.010613

>  <SCORE.INTRA.REPUL.0>  (12) 
0.031068

>  <SCORE.INTRA.VDW>  (12) 
-1.632730

>  <SCORE.INTRA.VDW.0>  (12) 
-0.730908

>  <SCORE.INTRA.norm>  (12) 
-0.066155

>  <SCORE.RESTR>  (12) 
0

>  <SCORE.RESTR.CAVITY>  (12) 
0

>  <SCORE.RESTR.norm>  (12) 
0

>  <SCORE.SYSTEM>  (12) 
0

>  <SCORE.SYSTEM.CONST>  (12) 
0

>  <SCORE.SYSTEM.DIHEDRAL>  (12) 
0

>  <SCORE.SYSTEM.norm>  (12) 
0

>  <SCORE.heavy>  (12) 
26

>  <SCORE.norm>  (12) 
-0.899520

>  <SMILES>  (12) 
CCn1nnnc1-c1cccc(NC(=O)NCc2ccccc2CO)c1

>  <Cycle>  (12) 
228

>  <MolWeight>  (12) 
352.398000

>  <LogP>  (12) 
2.174000

>  <QED>  (12) 
0.630513

>  <SAS>  (12) 
2.1528141820888731

$$$$
design_17
     RDKit          3D

 59 63  0  0  0  0  0  0  0  0999 V2000
  -20.0520   -6.6868   -0.8269 C   0  0  0  0  0  0  0  0  0  0  0  0
  -20.7732   -6.9639    0.4790 C   0  0  0  0  0  0  0  0  0  0  0  0
  -21.7088   -5.9598    0.8624 N   0  0  0  0  0  0  0  0  0  0  0  0
  -21.3637   -4.7999    1.4661 N   0  0  0  0  0  0  0  0  0  0  0  0
  -22.4333   -4.0747    1.6709 N   0  0  0  0  0  0  0  0  0  0  0  0
  -23.4432   -4.7408    1.2156 N   0  0  0  0  0  0  0  0  0  0  0  0
  -23.0215   -5.9426    0.6955 C   0  0  0  0  0  0  0  0  0  0  0  0
  -23.9536   -6.8886    0.0936 C   0  0  0  0  0  0  0  0  0  0  0  0
  -25.0071   -7.4528    0.7416 C   0  0  0  0  0  0  0  0  0  0  0  0
  -25.8547   -8.3799    0.1420 C   0  0  0  0  0  0  0  0  0  0  0  0
  -25.6208   -8.7474   -1.1714 C   0  0  0  0  0  0  0  0  0  0  0  0
  -24.5780   -8.2098   -1.8653 C   0  0  0  0  0  0  0  0  0  0  0  0
  -24.3261   -8.5568   -3.1932 N   0  0  0  0  0  0  0  0  0  0  0  0
  -24.9251   -9.5813   -3.9197 C   0  0  0  0  0  0  0  0  0  0  0  0
  -25.7934  -10.3249   -3.4423 O   0  0  0  0  0  0  0  0  0  0  0  0
  -24.5409   -9.8199   -5.3033 N   0  0  0  0  0  0  0  0  0  0  0  0
  -25.1571  -10.8701   -6.0428 C   0  0  0  0  0  0  0  0  0  0  0  0
  -25.8339  -10.3790   -7.3019 C   0  0  0  0  0  0  0  0  0  0  0  0
  -27.2608  -10.0492   -7.0187 C   0  0  0  0  0  0  0  0  0  0  0  0
  -27.8315  -10.0694   -5.7802 N   0  0  0  0  0  0  0  0  0  0  0  0
  -29.1228   -9.7183   -5.8717 C   0  0  0  0  0  0  0  0  0  0  0  0
  -30.1679   -9.5658   -4.9854 C   0  0  0  0  0  0  0  0  0  0  0  0
  -31.4267   -9.1815   -5.3807 C   0  0  0  0  0  0  0  0  0  0  0  0
  -31.6732   -8.9348   -6.7066 C   0  0  0  0  0  0  0  0  0  0  0  0
  -30.6595   -9.0759   -7.6157 C   0  0  0  0  0  0  0  0  0  0  0  0
  -29.4052   -9.4613   -7.2046 C   0  0  0  0  0  0  0  0  0  0  0  0
  -28.2345   -9.6787   -7.8569 N   0  0  0  0  0  0  0  0  0  0  0  0
  -23.7543   -7.2787   -1.2101 C   0  0  0  0  0  0  0  0  0  0  0  0
  -19.0484   -7.1100   -0.7840 H   0  0  0  0  0  0  0  0  0  0  0  0
  -20.6026   -7.1417   -1.6503 H   0  0  0  0  0  0  0  0  0  0  0  0
  -19.9853   -5.6103   -0.9845 H   0  0  0  0  0  0  0  0  0  0  0  0
  -20.0089   -6.9876    1.2557 H   0  0  0  0  0  0  0  0  0  0  0  0
  -21.3082   -7.9083    0.3794 H   0  0  0  0  0  0  0  0  0  0  0  0
  -25.1964   -7.1666    1.7762 H   0  0  0  0  0  0  0  0  0  0  0  0
  -26.6885   -8.8091    0.6976 H   0  0  0  0  0  0  0  0  0  0  0  0
  -26.2756   -9.4724   -1.6549 H   0  0  0  0  0  0  0  0  0  0  0  0
  -23.6342   -8.0047   -3.6796 H   0  0  0  0  0  0  0  0  0  0  0  0
  -25.9251  -11.3121   -5.4080 H   0  0  0  0  0  0  0  0  0  0  0  0
  -24.3938  -11.5980   -6.3178 H   0  0  0  0  0  0  0  0  0  0  0  0
  -25.7914  -11.1617   -8.0593 H   0  0  0  0  0  0  0  0  0  0  0  0
  -25.3216   -9.4875   -7.6638 H   0  0  0  0  0  0  0  0  0  0  0  0
  -29.9883   -9.7580   -3.9276 H   0  0  0  0  0  0  0  0  0  0  0  0
  -32.2238   -9.0736   -4.6451 H   0  0  0  0  0  0  0  0  0  0  0  0
  -32.6670   -8.6292   -7.0338 H   0  0  0  0  0  0  0  0  0  0  0  0
  -30.8477   -8.8816   -8.6716 H   0  0  0  0  0  0  0  0  0  0  0  0
  -28.1138   -9.5734   -8.8541 H   0  0  0  0  0  0  0  0  0  0  0  0
  -22.9190   -6.8457   -1.7604 H   0  0  0  0  0  0  0  0  0  0  0  0
  -21.5856   -9.0859   -6.7055 N   0  0  0  0  0  0  0  0  0  0  0  0
  -21.7569   -7.7877   -6.9634 C   0  0  0  0  0  0  0  0  0  0  0  0
  -22.9062   -7.1608   -6.6494 N   0  0  0  0  0  0  0  0  0  0  0  0
  -23.9996   -7.9154   -6.0089 C   0  0  0  0  0  0  0  0  0  0  0  0
  -23.8160   -9.2232   -5.7523 C   0  0  0  0  0  0  0  0  0  0  0  0
  -22.5255   -9.8366   -6.1284 C   0  0  0  0  0  0  0  0  0  0  0  0
  -22.3624  -11.0224   -5.8952 O   0  0  0  0  0  0  0  0  0  0  0  0
  -20.7744   -7.1127   -7.5391 N   0  0  0  0  0  0  0  0  0  0  0  0
  -20.7567   -9.5858   -6.9198 H   0  0  0  0  0  0  0  0  0  0  0  0
  -24.9242   -7.4304   -5.7514 H   0  0  0  0  0  0  0  0  0  0  0  0
  -20.9288   -6.1439   -7.7208 H   0  0  0  0  0  0  0  0  0  0  0  0
  -19.9089   -7.5437   -7.7857 H   0  0  0  0  0  0  0  0  0  0  0  0
  1  2  1  0
  2  3  1  0
  3  4  1  0
  4  5  2  0
  5  6  1  0
  6  7  2  0
  7  8  1  0
  8  9  2  0
  9 10  1  0
 10 11  2  0
 11 12  1  0
 12 13  1  0
 13 14  1  0
 14 15  2  0
 14 16  1  0
 16 17  1  0
 17 18  1  0
 18 19  1  0
 19 20  2  0
 20 21  1  0
 21 22  2  0
 22 23  1  0
 23 24  2  0
 24 25  1  0
 25 26  2  0
 26 27  1  0
 12 28  2  0
  3  7  1  0
  8 28  1  0
 19 27  1  0
 21 26  1  0
  1 29  1  0
  1 30  1  0
  1 31  1  0
  2 32  1  0
  2 33  1  0
  9 34  1  0
 10 35  1  0
 11 36  1  0
 13 37  1  0
 17 38  1  0
 17 39  1  0
 18 40  1  0
 18 41  1  0
 22 42  1  0
 23 43  1  0
 24 44  1  0
 25 45  1  0
 27 46  1  0
 28 47  1  0
 48 49  1  0
 48 53  1  0
 48 56  1  0
 49 50  2  0
 49 55  1  0
 50 51  1  0
 51 52  2  0
 51 57  1  0
 52 53  1  0
 53 54  2  0
 55 58  1  0
 55 59  1  0
 16 52  1  0
M  END
>  <CHROM.1>  (13) 
-80.49157674,121.73773902,-9.80278763,122.31988195,-91.32301403,5.67726155
-25.55692558,-8.25886217,-3.04373844,-0.87904587,0.09998095,-2.12621327

>  <Name>  (13) 
design_17

>  <RI>  (13) 
27379400.000000

>  <Rbt.Current_Directory>  (13) 
/pylon5/mc5pksp/smaltr/gateway_workdirs/PROCESS_93251df5-8da2-4fa9-b874-71853b29d1ad

>  <Rbt.Executable>  (13) 
rbdock ($Id: //depot/dev/client3/rdock/2013.1/src/exe/rbdock.cxx#4 $)

>  <Rbt.Library>  (13) 
libRbt.so (2013.1, Build901 2013/11/27)

>  <Rbt.Parameter_File>  (13) 
/home/smaltr/software/rDock_2013.1_src//data/scripts/dock.prm

>  <Rbt.Receptor>  (13) 
/pylon5/mc5pksp/smaltr/gateway_workdirs/PROCESS_93251df5-8da2-4fa9-b874-71853b29d1ad/output/SnD-Target-Sep02/cavity/pocket_docking.prm

>  <SCORE>  (13) 
-14.972600

>  <SCORE.INTER>  (13) 
-20.605200

>  <SCORE.INTER.CONST>  (13) 
1

>  <SCORE.INTER.POLAR>  (13) 
-3.283030

>  <SCORE.INTER.REPUL>  (13) 
0.005960

>  <SCORE.INTER.ROT>  (13) 
6

>  <SCORE.INTER.VDW>  (13) 
-20.872700

>  <SCORE.INTER.norm>  (13) 
-0.735898

>  <SCORE.INTRA>  (13) 
5.632560

>  <SCORE.INTRA.DIHEDRAL>  (13) 
12.015300

>  <SCORE.INTRA.DIHEDRAL.0>  (13) 
5.521370

>  <SCORE.INTRA.POLAR>  (13) 
0

>  <SCORE.INTRA.POLAR.0>  (13) 
0

>  <SCORE.INTRA.REPUL>  (13) 
0

>  <SCORE.INTRA.REPUL.0>  (13) 
0

>  <SCORE.INTRA.VDW>  (13) 
-0.375072

>  <SCORE.INTRA.VDW.0>  (13) 
-1.460840

>  <SCORE.INTRA.norm>  (13) 
0.201163

>  <SCORE.RESTR>  (13) 
0

>  <SCORE.RESTR.CAVITY>  (13) 
0

>  <SCORE.RESTR.norm>  (13) 
0

>  <SCORE.SYSTEM>  (13) 
0

>  <SCORE.SYSTEM.CONST>  (13) 
0

>  <SCORE.SYSTEM.DIHEDRAL>  (13) 
0

>  <SCORE.SYSTEM.norm>  (13) 
0

>  <SCORE.heavy>  (13) 
28

>  <SCORE.norm>  (13) 
-0.534736

>  <SMILES>  (13) 
CCn1nnnc1-c1cccc(NC(=O)NCCc2nc3ccccc3[nH]2)c1

>  <Cycle>  (13) 
228

>  <MolWeight>  (13) 
376.424000

>  <LogP>  (13) 
2.600500

>  <QED>  (13) 
0.478609

>  <SAS>  (13) 
1.1529896947632006

$$$$
design_17
     RDKit          3D

 62 67  0  0  0  0  0  0  0  0999 V2000
  -20.0520   -6.6868   -0.8269 C   0  0  0  0  0  0  0  0  0  0  0  0
  -20.7732   -6.9639    0.4790 C   0  0  0  0  0  0  0  0  0  0  0  0
  -21.7088   -5.9598    0.8624 N   0  0  0  0  0  0  0  0  0  0  0  0
  -21.3637   -4.7999    1.4661 N   0  0  0  0  0  0  0  0  0  0  0  0
  -22.4333   -4.0747    1.6709 N   0  0  0  0  0  0  0  0  0  0  0  0
  -23.4432   -4.7408    1.2156 N   0  0  0  0  0  0  0  0  0  0  0  0
  -23.0215   -5.9426    0.6955 C   0  0  0  0  0  0  0  0  0  0  0  0
  -23.9536   -6.8886    0.0936 C   0  0  0  0  0  0  0  0  0  0  0  0
  -25.0071   -7.4528    0.7416 C   0  0  0  0  0  0  0  0  0  0  0  0
  -25.8547   -8.3799    0.1420 C   0  0  0  0  0  0  0  0  0  0  0  0
  -25.6208   -8.7474   -1.1714 C   0  0  0  0  0  0  0  0  0  0  0  0
  -24.5780   -8.2098   -1.8653 C   0  0  0  0  0  0  0  0  0  0  0  0
  -24.3261   -8.5568   -3.1932 N   0  0  0  0  0  0  0  0  0  0  0  0
  -24.9251   -9.5813   -3.9197 C   0  0  0  0  0  0  0  0  0  0  0  0
  -25.7934  -10.3249   -3.4423 O   0  0  0  0  0  0  0  0  0  0  0  0
  -24.5409   -9.8199   -5.3033 N   0  0  0  0  0  0  0  0  0  0  0  0
  -25.1571  -10.8701   -6.0428 C   0  0  0  0  0  0  0  0  0  0  0  0
  -25.8339  -10.3790   -7.3019 C   0  0  0  0  0  0  0  0  0  0  0  0
  -27.2608  -10.0492   -7.0187 C   0  0  0  0  0  0  0  0  0  0  0  0
  -27.8315  -10.0694   -5.7802 N   0  0  0  0  0  0  0  0  0  0  0  0
  -29.1228   -9.7183   -5.8717 C   0  0  0  0  0  0  0  0  0  0  0  0
  -30.1679   -9.5658   -4.9854 C   0  0  0  0  0  0  0  0  0  0  0  0
  -31.4267   -9.1815   -5.3807 C   0  0  0  0  0  0  0  0  0  0  0  0
  -31.6732   -8.9348   -6.7066 C   0  0  0  0  0  0  0  0  0  0  0  0
  -30.6595   -9.0759   -7.6157 C   0  0  0  0  0  0  0  0  0  0  0  0
  -29.4052   -9.4613   -7.2046 C   0  0  0  0  0  0  0  0  0  0  0  0
  -28.2345   -9.6787   -7.8569 N   0  0  0  0  0  0  0  0  0  0  0  0
  -23.7543   -7.2787   -1.2101 C   0  0  0  0  0  0  0  0  0  0  0  0
  -20.6026   -7.1417   -1.6503 H   0  0  0  0  0  0  0  0  0  0  0  0
  -19.9853   -5.6103   -0.9845 H   0  0  0  0  0  0  0  0  0  0  0  0
  -20.0089   -6.9876    1.2557 H   0  0  0  0  0  0  0  0  0  0  0  0
  -21.3082   -7.9083    0.3794 H   0  0  0  0  0  0  0  0  0  0  0  0
  -25.1964   -7.1666    1.7762 H   0  0  0  0  0  0  0  0  0  0  0  0
  -26.6885   -8.8091    0.6976 H   0  0  0  0  0  0  0  0  0  0  0  0
  -26.2756   -9.4724   -1.6549 H   0  0  0  0  0  0  0  0  0  0  0  0
  -23.6342   -8.0047   -3.6796 H   0  0  0  0  0  0  0  0  0  0  0  0
  -23.8374   -9.2408   -5.7391 H   0  0  0  0  0  0  0  0  0  0  0  0
  -25.9251  -11.3121   -5.4080 H   0  0  0  0  0  0  0  0  0  0  0  0
  -24.3938  -11.5980   -6.3178 H   0  0  0  0  0  0  0  0  0  0  0  0
  -25.7914  -11.1617   -8.0593 H   0  0  0  0  0  0  0  0  0  0  0  0
  -25.3216   -9.4875   -7.6638 H   0  0  0  0  0  0  0  0  0  0  0  0
  -29.9883   -9.7580   -3.9276 H   0  0  0  0  0  0  0  0  0  0  0  0
  -32.2238   -9.0736   -4.6451 H   0  0  0  0  0  0  0  0  0  0  0  0
  -32.6670   -8.6292   -7.0338 H   0  0  0  0  0  0  0  0  0  0  0  0
  -30.8477   -8.8816   -8.6716 H   0  0  0  0  0  0  0  0  0  0  0  0
  -28.1138   -9.5734   -8.8541 H   0  0  0  0  0  0  0  0  0  0  0  0
  -22.9190   -6.8457   -1.7604 H   0  0  0  0  0  0  0  0  0  0  0  0
  -16.7996   -6.7731   -0.8819 N   0  0  0  0  0  0  0  0  0  0  0  0
  -18.0575   -6.2683   -0.9327 C   0  0  0  0  0  0  0  0  0  0  0  0
  -18.2778   -4.9481   -1.1290 N   0  0  0  0  0  0  0  0  0  0  0  0
  -17.0819   -4.1160   -1.2800 C   0  0  0  0  0  0  0  0  0  0  0  0
  -15.8168   -4.6898   -1.2196 C   0  0  0  0  0  0  0  0  0  0  0  0
  -15.6606   -6.0514   -1.0161 C   0  0  0  0  0  0  0  0  0  0  0  0
  -14.9053   -3.6996   -1.3894 N   0  0  0  0  0  0  0  0  0  0  0  0
  -15.6202   -2.5672   -1.5465 C   0  0  0  0  0  0  0  0  0  0  0  0
  -16.9495   -2.7926   -1.4844 N   0  0  0  0  0  0  0  0  0  0  0  0
  -19.0903   -7.0923   -0.7858 N   0  0  0  0  0  0  0  0  0  0  0  0
  -14.5551   -6.5704   -0.9606 O   0  0  0  0  0  0  0  0  0  0  0  0
  -17.6755   -2.1413   -1.5682 H   0  0  0  0  0  0  0  0  0  0  0  0
  -18.9714   -8.0721   -0.6390 H   0  0  0  0  0  0  0  0  0  0  0  0
  -16.6364   -7.7439   -0.7375 H   0  0  0  0  0  0  0  0  0  0  0  0
  -15.1689   -1.5979   -1.7033 H   0  0  0  0  0  0  0  0  0  0  0  0
  1  2  1  0
  2  3  1  0
  3  4  1  0
  4  5  2  0
  5  6  1  0
  6  7  2  0
  7  8  1  0
  8  9  2  0
  9 10  1  0
 10 11  2  0
 11 12  1  0
 12 13  1  0
 13 14  1  0
 14 15  2  0
 14 16  1  0
 16 17  1  0
 17 18  1  0
 18 19  1  0
 19 20  2  0
 20 21  1  0
 21 22  2  0
 22 23  1  0
 23 24  2  0
 24 25  1  0
 25 26  2  0
 26 27  1  0
 12 28  2  0
  3  7  1  0
  8 28  1  0
 19 27  1  0
 21 26  1  0
  1 29  1  0
  1 30  1  0
  2 31  1  0
  2 32  1  0
  9 33  1  0
 10 34  1  0
 11 35  1  0
 13 36  1  0
 16 37  1  0
 17 38  1  0
 17 39  1  0
 18 40  1  0
 18 41  1  0
 22 42  1  0
 23 43  1  0
 24 44  1  0
 25 45  1  0
 27 46  1  0
 28 47  1  0
 48 61  1  0
 48 49  1  0
 49 50  2  0
 49 57  1  0
 50 51  1  0
 51 52  2  0
 52 53  1  0
 52 54  1  0
 48 53  1  0
 54 55  2  0
 55 62  1  0
 51 56  1  0
 55 56  1  0
 56 59  1  0
 53 58  2  0
 57 60  1  0
  1 57  1  0
M  END
>  <CHROM.1>  (14) 
-80.49157674,121.73773902,-9.80278763,122.31988195,-91.32301403,5.67726155
-25.55692558,-8.25886217,-3.04373844,-0.87904587,0.09998095,-2.12621327

>  <Name>  (14) 
design_17

>  <RI>  (14) 
27379400.000000

>  <Rbt.Current_Directory>  (14) 
/pylon5/mc5pksp/smaltr/gateway_workdirs/PROCESS_93251df5-8da2-4fa9-b874-71853b29d1ad

>  <Rbt.Executable>  (14) 
rbdock ($Id: //depot/dev/client3/rdock/2013.1/src/exe/rbdock.cxx#4 $)

>  <Rbt.Library>  (14) 
libRbt.so (2013.1, Build901 2013/11/27)

>  <Rbt.Parameter_File>  (14) 
/home/smaltr/software/rDock_2013.1_src//data/scripts/dock.prm

>  <Rbt.Receptor>  (14) 
/pylon5/mc5pksp/smaltr/gateway_workdirs/PROCESS_93251df5-8da2-4fa9-b874-71853b29d1ad/output/SnD-Target-Sep02/cavity/pocket_docking.prm

>  <SCORE>  (14) 
-14.972600

>  <SCORE.INTER>  (14) 
-20.605200

>  <SCORE.INTER.CONST>  (14) 
1

>  <SCORE.INTER.POLAR>  (14) 
-3.283030

>  <SCORE.INTER.REPUL>  (14) 
0.005960

>  <SCORE.INTER.ROT>  (14) 
6

>  <SCORE.INTER.VDW>  (14) 
-20.872700

>  <SCORE.INTER.norm>  (14) 
-0.735898

>  <SCORE.INTRA>  (14) 
5.632560

>  <SCORE.INTRA.DIHEDRAL>  (14) 
12.015300

>  <SCORE.INTRA.DIHEDRAL.0>  (14) 
5.521370

>  <SCORE.INTRA.POLAR>  (14) 
0

>  <SCORE.INTRA.POLAR.0>  (14) 
0

>  <SCORE.INTRA.REPUL>  (14) 
0

>  <SCORE.INTRA.REPUL.0>  (14) 
0

>  <SCORE.INTRA.VDW>  (14) 
-0.375072

>  <SCORE.INTRA.VDW.0>  (14) 
-1.460840

>  <SCORE.INTRA.norm>  (14) 
0.201163

>  <SCORE.RESTR>  (14) 
0

>  <SCORE.RESTR.CAVITY>  (14) 
0

>  <SCORE.RESTR.norm>  (14) 
0

>  <SCORE.SYSTEM>  (14) 
0

>  <SCORE.SYSTEM.CONST>  (14) 
0

>  <SCORE.SYSTEM.DIHEDRAL>  (14) 
0

>  <SCORE.SYSTEM.norm>  (14) 
0

>  <SCORE.heavy>  (14) 
28

>  <SCORE.norm>  (14) 
-0.534736

>  <SMILES>  (14) 
CCn1nnnc1-c1cccc(NC(=O)NCCc2nc3ccccc3[nH]2)c1

>  <Cycle>  (14) 
228

>  <MolWeight>  (14) 
376.424000

>  <LogP>  (14) 
2.600500

>  <QED>  (14) 
0.478609

>  <SAS>  (14) 
1.9937488137622319

$$$$
design_17
     RDKit          3D

 55 59  0  0  0  0  0  0  0  0999 V2000
  -20.0520   -6.6868   -0.8269 C   0  0  0  0  0  0  0  0  0  0  0  0
  -20.7732   -6.9639    0.4790 C   0  0  0  0  0  0  0  0  0  0  0  0
  -21.7088   -5.9598    0.8624 N   0  0  0  0  0  0  0  0  0  0  0  0
  -21.3637   -4.7999    1.4661 N   0  0  0  0  0  0  0  0  0  0  0  0
  -22.4333   -4.0747    1.6709 N   0  0  0  0  0  0  0  0  0  0  0  0
  -23.4432   -4.7408    1.2156 N   0  0  0  0  0  0  0  0  0  0  0  0
  -23.0215   -5.9426    0.6955 C   0  0  0  0  0  0  0  0  0  0  0  0
  -23.9536   -6.8886    0.0936 C   0  0  0  0  0  0  0  0  0  0  0  0
  -25.0071   -7.4528    0.7416 C   0  0  0  0  0  0  0  0  0  0  0  0
  -25.8547   -8.3799    0.1420 C   0  0  0  0  0  0  0  0  0  0  0  0
  -25.6208   -8.7474   -1.1714 C   0  0  0  0  0  0  0  0  0  0  0  0
  -24.5780   -8.2098   -1.8653 C   0  0  0  0  0  0  0  0  0  0  0  0
  -24.3261   -8.5568   -3.1932 N   0  0  0  0  0  0  0  0  0  0  0  0
  -24.9251   -9.5813   -3.9197 C   0  0  0  0  0  0  0  0  0  0  0  0
  -25.7934  -10.3249   -3.4423 O   0  0  0  0  0  0  0  0  0  0  0  0
  -24.5409   -9.8199   -5.3033 N   0  0  0  0  0  0  0  0  0  0  0  0
  -25.1571  -10.8701   -6.0428 C   0  0  0  0  0  0  0  0  0  0  0  0
  -25.8339  -10.3790   -7.3019 C   0  0  0  0  0  0  0  0  0  0  0  0
  -27.2608  -10.0492   -7.0187 C   0  0  0  0  0  0  0  0  0  0  0  0
  -27.8315  -10.0694   -5.7802 N   0  0  0  0  0  0  0  0  0  0  0  0
  -29.1228   -9.7183   -5.8717 C   0  0  0  0  0  0  0  0  0  0  0  0
  -30.1679   -9.5658   -4.9854 C   0  0  0  0  0  0  0  0  0  0  0  0
  -31.4267   -9.1815   -5.3807 C   0  0  0  0  0  0  0  0  0  0  0  0
  -31.6732   -8.9348   -6.7066 C   0  0  0  0  0  0  0  0  0  0  0  0
  -30.6595   -9.0759   -7.6157 C   0  0  0  0  0  0  0  0  0  0  0  0
  -29.4052   -9.4613   -7.2046 C   0  0  0  0  0  0  0  0  0  0  0  0
  -28.2345   -9.6787   -7.8569 N   0  0  0  0  0  0  0  0  0  0  0  0
  -23.7543   -7.2787   -1.2101 C   0  0  0  0  0  0  0  0  0  0  0  0
  -19.0484   -7.1100   -0.7840 H   0  0  0  0  0  0  0  0  0  0  0  0
  -20.6026   -7.1417   -1.6503 H   0  0  0  0  0  0  0  0  0  0  0  0
  -19.9853   -5.6103   -0.9845 H   0  0  0  0  0  0  0  0  0  0  0  0
  -20.0089   -6.9876    1.2557 H   0  0  0  0  0  0  0  0  0  0  0  0
  -21.3082   -7.9083    0.3794 H   0  0  0  0  0  0  0  0  0  0  0  0
  -25.1964   -7.1666    1.7762 H   0  0  0  0  0  0  0  0  0  0  0  0
  -26.6885   -8.8091    0.6976 H   0  0  0  0  0  0  0  0  0  0  0  0
  -26.2756   -9.4724   -1.6549 H   0  0  0  0  0  0  0  0  0  0  0  0
  -23.6342   -8.0047   -3.6796 H   0  0  0  0  0  0  0  0  0  0  0  0
  -25.9251  -11.3121   -5.4080 H   0  0  0  0  0  0  0  0  0  0  0  0
  -24.3938  -11.5980   -6.3178 H   0  0  0  0  0  0  0  0  0  0  0  0
  -25.7914  -11.1617   -8.0593 H   0  0  0  0  0  0  0  0  0  0  0  0
  -25.3216   -9.4875   -7.6638 H   0  0  0  0  0  0  0  0  0  0  0  0
  -29.9883   -9.7580   -3.9276 H   0  0  0  0  0  0  0  0  0  0  0  0
  -32.2238   -9.0736   -4.6451 H   0  0  0  0  0  0  0  0  0  0  0  0
  -32.6670   -8.6292   -7.0338 H   0  0  0  0  0  0  0  0  0  0  0  0
  -30.8477   -8.8816   -8.6716 H   0  0  0  0  0  0  0  0  0  0  0  0
  -28.1138   -9.5734   -8.8541 H   0  0  0  0  0  0  0  0  0  0  0  0
  -22.9190   -6.8457   -1.7604 H   0  0  0  0  0  0  0  0  0  0  0  0
  -22.6798   -7.4681   -6.3211 N   0  0  0  0  0  0  0  0  0  0  0  0
  -23.7059   -7.8891   -5.6050 C   0  0  0  0  0  0  0  0  0  0  0  0
  -23.8339   -9.2379   -5.7413 N   0  0  0  0  0  0  0  0  0  0  0  0
  -22.8398   -9.6662   -6.5732 C   0  0  0  0  0  0  0  0  0  0  0  0
  -22.0971   -8.5986   -6.9406 C   0  0  0  0  0  0  0  0  0  0  0  0
  -24.3278   -7.2777   -5.0201 H   0  0  0  0  0  0  0  0  0  0  0  0
  -22.6792  -10.6585   -6.8767 H   0  0  0  0  0  0  0  0  0  0  0  0
  -21.2524   -8.6066   -7.5641 H   0  0  0  0  0  0  0  0  0  0  0  0
  1  2  1  0
  2  3  1  0
  3  4  1  0
  4  5  2  0
  5  6  1  0
  6  7  2  0
  7  8  1  0
  8  9  2  0
  9 10  1  0
 10 11  2  0
 11 12  1  0
 12 13  1  0
 13 14  1  0
 14 15  2  0
 14 16  1  0
 16 17  1  0
 17 18  1  0
 18 19  1  0
 19 20  2  0
 20 21  1  0
 21 22  2  0
 22 23  1  0
 23 24  2  0
 24 25  1  0
 25 26  2  0
 26 27  1  0
 12 28  2  0
  3  7  1  0
  8 28  1  0
 19 27  1  0
 21 26  1  0
  1 29  1  0
  1 30  1  0
  1 31  1  0
  2 32  1  0
  2 33  1  0
  9 34  1  0
 10 35  1  0
 11 36  1  0
 13 37  1  0
 17 38  1  0
 17 39  1  0
 18 40  1  0
 18 41  1  0
 22 42  1  0
 23 43  1  0
 24 44  1  0
 25 45  1  0
 27 46  1  0
 28 47  1  0
 48 49  2  0
 48 52  1  0
 49 53  1  0
 49 50  1  0
 50 51  1  0
 51 54  1  0
 51 52  2  0
 52 55  1  0
 16 50  1  0
M  END
>  <CHROM.1>  (15) 
-80.49157674,121.73773902,-9.80278763,122.31988195,-91.32301403,5.67726155
-25.55692558,-8.25886217,-3.04373844,-0.87904587,0.09998095,-2.12621327

>  <Name>  (15) 
design_17

>  <RI>  (15) 
27379400.000000

>  <Rbt.Current_Directory>  (15) 
/pylon5/mc5pksp/smaltr/gateway_workdirs/PROCESS_93251df5-8da2-4fa9-b874-71853b29d1ad

>  <Rbt.Executable>  (15) 
rbdock ($Id: //depot/dev/client3/rdock/2013.1/src/exe/rbdock.cxx#4 $)

>  <Rbt.Library>  (15) 
libRbt.so (2013.1, Build901 2013/11/27)

>  <Rbt.Parameter_File>  (15) 
/home/smaltr/software/rDock_2013.1_src//data/scripts/dock.prm

>  <Rbt.Receptor>  (15) 
/pylon5/mc5pksp/smaltr/gateway_workdirs/PROCESS_93251df5-8da2-4fa9-b874-71853b29d1ad/output/SnD-Target-Sep02/cavity/pocket_docking.prm

>  <SCORE>  (15) 
-14.972600

>  <SCORE.INTER>  (15) 
-20.605200

>  <SCORE.INTER.CONST>  (15) 
1

>  <SCORE.INTER.POLAR>  (15) 
-3.283030

>  <SCORE.INTER.REPUL>  (15) 
0.005960

>  <SCORE.INTER.ROT>  (15) 
6

>  <SCORE.INTER.VDW>  (15) 
-20.872700

>  <SCORE.INTER.norm>  (15) 
-0.735898

>  <SCORE.INTRA>  (15) 
5.632560

>  <SCORE.INTRA.DIHEDRAL>  (15) 
12.015300

>  <SCORE.INTRA.DIHEDRAL.0>  (15) 
5.521370

>  <SCORE.INTRA.POLAR>  (15) 
0

>  <SCORE.INTRA.POLAR.0>  (15) 
0

>  <SCORE.INTRA.REPUL>  (15) 
0

>  <SCORE.INTRA.REPUL.0>  (15) 
0

>  <SCORE.INTRA.VDW>  (15) 
-0.375072

>  <SCORE.INTRA.VDW.0>  (15) 
-1.460840

>  <SCORE.INTRA.norm>  (15) 
0.201163

>  <SCORE.RESTR>  (15) 
0

>  <SCORE.RESTR.CAVITY>  (15) 
0

>  <SCORE.RESTR.norm>  (15) 
0

>  <SCORE.SYSTEM>  (15) 
0

>  <SCORE.SYSTEM.CONST>  (15) 
0

>  <SCORE.SYSTEM.DIHEDRAL>  (15) 
0

>  <SCORE.SYSTEM.norm>  (15) 
0

>  <SCORE.heavy>  (15) 
28

>  <SCORE.norm>  (15) 
-0.534736

>  <SMILES>  (15) 
CCn1nnnc1-c1cccc(NC(=O)NCCc2nc3ccccc3[nH]2)c1

>  <Cycle>  (15) 
228

>  <MolWeight>  (15) 
376.424000

>  <LogP>  (15) 
2.600500

>  <QED>  (15) 
0.478609

>  <SAS>  (15) 
1

$$$$
design_17
     RDKit          3D

 55 59  0  0  0  0  0  0  0  0999 V2000
  -20.0520   -6.6868   -0.8269 C   0  0  0  0  0  0  0  0  0  0  0  0
  -20.7732   -6.9639    0.4790 C   0  0  0  0  0  0  0  0  0  0  0  0
  -21.7088   -5.9598    0.8624 N   0  0  0  0  0  0  0  0  0  0  0  0
  -21.3637   -4.7999    1.4661 N   0  0  0  0  0  0  0  0  0  0  0  0
  -22.4333   -4.0747    1.6709 N   0  0  0  0  0  0  0  0  0  0  0  0
  -23.4432   -4.7408    1.2156 N   0  0  0  0  0  0  0  0  0  0  0  0
  -23.0215   -5.9426    0.6955 C   0  0  0  0  0  0  0  0  0  0  0  0
  -23.9536   -6.8886    0.0936 C   0  0  0  0  0  0  0  0  0  0  0  0
  -25.0071   -7.4528    0.7416 C   0  0  0  0  0  0  0  0  0  0  0  0
  -25.8547   -8.3799    0.1420 C   0  0  0  0  0  0  0  0  0  0  0  0
  -25.6208   -8.7474   -1.1714 C   0  0  0  0  0  0  0  0  0  0  0  0
  -24.5780   -8.2098   -1.8653 C   0  0  0  0  0  0  0  0  0  0  0  0
  -24.3261   -8.5568   -3.1932 N   0  0  0  0  0  0  0  0  0  0  0  0
  -24.9251   -9.5813   -3.9197 C   0  0  0  0  0  0  0  0  0  0  0  0
  -25.7934  -10.3249   -3.4423 O   0  0  0  0  0  0  0  0  0  0  0  0
  -24.5409   -9.8199   -5.3033 N   0  0  0  0  0  0  0  0  0  0  0  0
  -25.1571  -10.8701   -6.0428 C   0  0  0  0  0  0  0  0  0  0  0  0
  -25.8339  -10.3790   -7.3019 C   0  0  0  0  0  0  0  0  0  0  0  0
  -27.2608  -10.0492   -7.0187 C   0  0  0  0  0  0  0  0  0  0  0  0
  -27.8315  -10.0694   -5.7802 N   0  0  0  0  0  0  0  0  0  0  0  0
  -29.1228   -9.7183   -5.8717 C   0  0  0  0  0  0  0  0  0  0  0  0
  -30.1679   -9.5658   -4.9854 C   0  0  0  0  0  0  0  0  0  0  0  0
  -31.4267   -9.1815   -5.3807 C   0  0  0  0  0  0  0  0  0  0  0  0
  -31.6732   -8.9348   -6.7066 C   0  0  0  0  0  0  0  0  0  0  0  0
  -30.6595   -9.0759   -7.6157 C   0  0  0  0  0  0  0  0  0  0  0  0
  -29.4052   -9.4613   -7.2046 C   0  0  0  0  0  0  0  0  0  0  0  0
  -28.2345   -9.6787   -7.8569 N   0  0  0  0  0  0  0  0  0  0  0  0
  -23.7543   -7.2787   -1.2101 C   0  0  0  0  0  0  0  0  0  0  0  0
  -20.6026   -7.1417   -1.6503 H   0  0  0  0  0  0  0  0  0  0  0  0
  -19.9853   -5.6103   -0.9845 H   0  0  0  0  0  0  0  0  0  0  0  0
  -20.0089   -6.9876    1.2557 H   0  0  0  0  0  0  0  0  0  0  0  0
  -21.3082   -7.9083    0.3794 H   0  0  0  0  0  0  0  0  0  0  0  0
  -25.1964   -7.1666    1.7762 H   0  0  0  0  0  0  0  0  0  0  0  0
  -26.6885   -8.8091    0.6976 H   0  0  0  0  0  0  0  0  0  0  0  0
  -26.2756   -9.4724   -1.6549 H   0  0  0  0  0  0  0  0  0  0  0  0
  -23.6342   -8.0047   -3.6796 H   0  0  0  0  0  0  0  0  0  0  0  0
  -23.8374   -9.2408   -5.7391 H   0  0  0  0  0  0  0  0  0  0  0  0
  -25.9251  -11.3121   -5.4080 H   0  0  0  0  0  0  0  0  0  0  0  0
  -24.3938  -11.5980   -6.3178 H   0  0  0  0  0  0  0  0  0  0  0  0
  -25.7914  -11.1617   -8.0593 H   0  0  0  0  0  0  0  0  0  0  0  0
  -25.3216   -9.4875   -7.6638 H   0  0  0  0  0  0  0  0  0  0  0  0
  -29.9883   -9.7580   -3.9276 H   0  0  0  0  0  0  0  0  0  0  0  0
  -32.2238   -9.0736   -4.6451 H   0  0  0  0  0  0  0  0  0  0  0  0
  -32.6670   -8.6292   -7.0338 H   0  0  0  0  0  0  0  0  0  0  0  0
  -30.8477   -8.8816   -8.6716 H   0  0  0  0  0  0  0  0  0  0  0  0
  -28.1138   -9.5734   -8.8541 H   0  0  0  0  0  0  0  0  0  0  0  0
  -22.9190   -6.8457   -1.7604 H   0  0  0  0  0  0  0  0  0  0  0  0
  -17.9606   -6.4765   -1.1421 N   0  0  0  0  0  0  0  0  0  0  0  0
  -19.0668   -7.1022   -0.7848 C   0  0  0  0  0  0  0  0  0  0  0  0
  -18.7615   -8.3576   -0.3544 N   0  0  0  0  0  0  0  0  0  0  0  0
  -17.4077   -8.5088   -0.4457 C   0  0  0  0  0  0  0  0  0  0  0  0
  -16.8776   -7.3584   -0.9167 C   0  0  0  0  0  0  0  0  0  0  0  0
  -19.4247   -9.0585   -0.0234 H   0  0  0  0  0  0  0  0  0  0  0  0
  -16.8689   -9.3738   -0.1926 H   0  0  0  0  0  0  0  0  0  0  0  0
  -15.8604   -7.1582   -1.0829 H   0  0  0  0  0  0  0  0  0  0  0  0
  1  2  1  0
  2  3  1  0
  3  4  1  0
  4  5  2  0
  5  6  1  0
  6  7  2  0
  7  8  1  0
  8  9  2  0
  9 10  1  0
 10 11  2  0
 11 12  1  0
 12 13  1  0
 13 14  1  0
 14 15  2  0
 14 16  1  0
 16 17  1  0
 17 18  1  0
 18 19  1  0
 19 20  2  0
 20 21  1  0
 21 22  2  0
 22 23  1  0
 23 24  2  0
 24 25  1  0
 25 26  2  0
 26 27  1  0
 12 28  2  0
  3  7  1  0
  8 28  1  0
 19 27  1  0
 21 26  1  0
  1 29  1  0
  1 30  1  0
  2 31  1  0
  2 32  1  0
  9 33  1  0
 10 34  1  0
 11 35  1  0
 13 36  1  0
 16 37  1  0
 17 38  1  0
 17 39  1  0
 18 40  1  0
 18 41  1  0
 22 42  1  0
 23 43  1  0
 24 44  1  0
 25 45  1  0
 27 46  1  0
 28 47  1  0
 48 49  2  0
 48 52  1  0
 49 50  1  0
 50 51  1  0
 50 53  1  0
 51 54  1  0
 51 52  2  0
 52 55  1  0
  1 49  1  0
M  END
>  <CHROM.1>  (16) 
-80.49157674,121.73773902,-9.80278763,122.31988195,-91.32301403,5.67726155
-25.55692558,-8.25886217,-3.04373844,-0.87904587,0.09998095,-2.12621327

>  <Name>  (16) 
design_17

>  <RI>  (16) 
27379400.000000

>  <Rbt.Current_Directory>  (16) 
/pylon5/mc5pksp/smaltr/gateway_workdirs/PROCESS_93251df5-8da2-4fa9-b874-71853b29d1ad

>  <Rbt.Executable>  (16) 
rbdock ($Id: //depot/dev/client3/rdock/2013.1/src/exe/rbdock.cxx#4 $)

>  <Rbt.Library>  (16) 
libRbt.so (2013.1, Build901 2013/11/27)

>  <Rbt.Parameter_File>  (16) 
/home/smaltr/software/rDock_2013.1_src//data/scripts/dock.prm

>  <Rbt.Receptor>  (16) 
/pylon5/mc5pksp/smaltr/gateway_workdirs/PROCESS_93251df5-8da2-4fa9-b874-71853b29d1ad/output/SnD-Target-Sep02/cavity/pocket_docking.prm

>  <SCORE>  (16) 
-14.972600

>  <SCORE.INTER>  (16) 
-20.605200

>  <SCORE.INTER.CONST>  (16) 
1

>  <SCORE.INTER.POLAR>  (16) 
-3.283030

>  <SCORE.INTER.REPUL>  (16) 
0.005960

>  <SCORE.INTER.ROT>  (16) 
6

>  <SCORE.INTER.VDW>  (16) 
-20.872700

>  <SCORE.INTER.norm>  (16) 
-0.735898

>  <SCORE.INTRA>  (16) 
5.632560

>  <SCORE.INTRA.DIHEDRAL>  (16) 
12.015300

>  <SCORE.INTRA.DIHEDRAL.0>  (16) 
5.521370

>  <SCORE.INTRA.POLAR>  (16) 
0

>  <SCORE.INTRA.POLAR.0>  (16) 
0

>  <SCORE.INTRA.REPUL>  (16) 
0

>  <SCORE.INTRA.REPUL.0>  (16) 
0

>  <SCORE.INTRA.VDW>  (16) 
-0.375072

>  <SCORE.INTRA.VDW.0>  (16) 
-1.460840

>  <SCORE.INTRA.norm>  (16) 
0.201163

>  <SCORE.RESTR>  (16) 
0

>  <SCORE.RESTR.CAVITY>  (16) 
0

>  <SCORE.RESTR.norm>  (16) 
0

>  <SCORE.SYSTEM>  (16) 
0

>  <SCORE.SYSTEM.CONST>  (16) 
0

>  <SCORE.SYSTEM.DIHEDRAL>  (16) 
0

>  <SCORE.SYSTEM.norm>  (16) 
0

>  <SCORE.heavy>  (16) 
28

>  <SCORE.norm>  (16) 
-0.534736

>  <SMILES>  (16) 
CCn1nnnc1-c1cccc(NC(=O)NCCc2nc3ccccc3[nH]2)c1

>  <Cycle>  (16) 
228

>  <MolWeight>  (16) 
376.424000

>  <LogP>  (16) 
2.600500

>  <QED>  (16) 
0.478609

>  <SAS>  (16) 
1.5707108819795952

$$$$
design_17
     RDKit          3D

 57 61  0  0  0  0  0  0  0  0999 V2000
  -20.0520   -6.6868   -0.8269 C   0  0  0  0  0  0  0  0  0  0  0  0
  -20.7732   -6.9639    0.4790 C   0  0  0  0  0  0  0  0  0  0  0  0
  -21.7088   -5.9598    0.8624 N   0  0  0  0  0  0  0  0  0  0  0  0
  -21.3637   -4.7999    1.4661 N   0  0  0  0  0  0  0  0  0  0  0  0
  -22.4333   -4.0747    1.6709 N   0  0  0  0  0  0  0  0  0  0  0  0
  -23.4432   -4.7408    1.2156 N   0  0  0  0  0  0  0  0  0  0  0  0
  -23.0215   -5.9426    0.6955 C   0  0  0  0  0  0  0  0  0  0  0  0
  -23.9536   -6.8886    0.0936 C   0  0  0  0  0  0  0  0  0  0  0  0
  -25.0071   -7.4528    0.7416 C   0  0  0  0  0  0  0  0  0  0  0  0
  -25.8547   -8.3799    0.1420 C   0  0  0  0  0  0  0  0  0  0  0  0
  -25.6208   -8.7474   -1.1714 C   0  0  0  0  0  0  0  0  0  0  0  0
  -24.5780   -8.2098   -1.8653 C   0  0  0  0  0  0  0  0  0  0  0  0
  -24.3261   -8.5568   -3.1932 N   0  0  0  0  0  0  0  0  0  0  0  0
  -24.9251   -9.5813   -3.9197 C   0  0  0  0  0  0  0  0  0  0  0  0
  -25.7934  -10.3249   -3.4423 O   0  0  0  0  0  0  0  0  0  0  0  0
  -24.5409   -9.8199   -5.3033 N   0  0  0  0  0  0  0  0  0  0  0  0
  -25.1571  -10.8701   -6.0428 C   0  0  0  0  0  0  0  0  0  0  0  0
  -25.8339  -10.3790   -7.3019 C   0  0  0  0  0  0  0  0  0  0  0  0
  -27.2608  -10.0492   -7.0187 C   0  0  0  0  0  0  0  0  0  0  0  0
  -27.8315  -10.0694   -5.7802 N   0  0  0  0  0  0  0  0  0  0  0  0
  -29.1228   -9.7183   -5.8717 C   0  0  0  0  0  0  0  0  0  0  0  0
  -30.1679   -9.5658   -4.9854 C   0  0  0  0  0  0  0  0  0  0  0  0
  -31.4267   -9.1815   -5.3807 C   0  0  0  0  0  0  0  0  0  0  0  0
  -31.6732   -8.9348   -6.7066 C   0  0  0  0  0  0  0  0  0  0  0  0
  -30.6595   -9.0759   -7.6157 C   0  0  0  0  0  0  0  0  0  0  0  0
  -29.4052   -9.4613   -7.2046 C   0  0  0  0  0  0  0  0  0  0  0  0
  -28.2345   -9.6787   -7.8569 N   0  0  0  0  0  0  0  0  0  0  0  0
  -23.7543   -7.2787   -1.2101 C   0  0  0  0  0  0  0  0  0  0  0  0
  -20.6026   -7.1417   -1.6503 H   0  0  0  0  0  0  0  0  0  0  0  0
  -19.9853   -5.6103   -0.9845 H   0  0  0  0  0  0  0  0  0  0  0  0
  -20.0089   -6.9876    1.2557 H   0  0  0  0  0  0  0  0  0  0  0  0
  -21.3082   -7.9083    0.3794 H   0  0  0  0  0  0  0  0  0  0  0  0
  -25.1964   -7.1666    1.7762 H   0  0  0  0  0  0  0  0  0  0  0  0
  -26.6885   -8.8091    0.6976 H   0  0  0  0  0  0  0  0  0  0  0  0
  -26.2756   -9.4724   -1.6549 H   0  0  0  0  0  0  0  0  0  0  0  0
  -23.6342   -8.0047   -3.6796 H   0  0  0  0  0  0  0  0  0  0  0  0
  -23.8374   -9.2408   -5.7391 H   0  0  0  0  0  0  0  0  0  0  0  0
  -25.9251  -11.3121   -5.4080 H   0  0  0  0  0  0  0  0  0  0  0  0
  -24.3938  -11.5980   -6.3178 H   0  0  0  0  0  0  0  0  0  0  0  0
  -25.7914  -11.1617   -8.0593 H   0  0  0  0  0  0  0  0  0  0  0  0
  -25.3216   -9.4875   -7.6638 H   0  0  0  0  0  0  0  0  0  0  0  0
  -29.9883   -9.7580   -3.9276 H   0  0  0  0  0  0  0  0  0  0  0  0
  -32.2238   -9.0736   -4.6451 H   0  0  0  0  0  0  0  0  0  0  0  0
  -32.6670   -8.6292   -7.0338 H   0  0  0  0  0  0  0  0  0  0  0  0
  -30.8477   -8.8816   -8.6716 H   0  0  0  0  0  0  0  0  0  0  0  0
  -28.1138   -9.5734   -8.8541 H   0  0  0  0  0  0  0  0  0  0  0  0
  -22.9190   -6.8457   -1.7604 H   0  0  0  0  0  0  0  0  0  0  0  0
  -17.4622   -8.5886   -0.6749 O   0  0  0  0  0  0  0  0  0  0  0  0
  -16.8654   -7.3757   -0.7245 C   0  0  0  0  0  0  0  0  0  0  0  0
  -17.8490   -6.3988   -0.7958 C   0  0  0  0  0  0  0  0  0  0  0  0
  -19.0532   -7.1080   -0.7842 C   0  0  0  0  0  0  0  0  0  0  0  0
  -18.7602   -8.4333   -0.7099 N   0  0  0  0  0  0  0  0  0  0  0  0
  -15.3714   -7.1699   -0.7030 C   0  0  0  0  0  0  0  0  0  0  0  0
  -17.7073   -5.3316   -0.8482 H   0  0  0  0  0  0  0  0  0  0  0  0
  -15.0237   -7.0698    0.3242 H   0  0  0  0  0  0  0  0  0  0  0  0
  -14.8720   -8.0249   -1.1581 H   0  0  0  0  0  0  0  0  0  0  0  0
  -15.1008   -6.2717   -1.2578 H   0  0  0  0  0  0  0  0  0  0  0  0
  1  2  1  0
  2  3  1  0
  3  4  1  0
  4  5  2  0
  5  6  1  0
  6  7  2  0
  7  8  1  0
  8  9  2  0
  9 10  1  0
 10 11  2  0
 11 12  1  0
 12 13  1  0
 13 14  1  0
 14 15  2  0
 14 16  1  0
 16 17  1  0
 17 18  1  0
 18 19  1  0
 19 20  2  0
 20 21  1  0
 21 22  2  0
 22 23  1  0
 23 24  2  0
 24 25  1  0
 25 26  2  0
 26 27  1  0
 12 28  2  0
  3  7  1  0
  8 28  1  0
 19 27  1  0
 21 26  1  0
  1 29  1  0
  1 30  1  0
  2 31  1  0
  2 32  1  0
  9 33  1  0
 10 34  1  0
 11 35  1  0
 13 36  1  0
 16 37  1  0
 17 38  1  0
 17 39  1  0
 18 40  1  0
 18 41  1  0
 22 42  1  0
 23 43  1  0
 24 44  1  0
 25 45  1  0
 27 46  1  0
 28 47  1  0
 48 49  1  0
 48 52  1  0
 49 50  2  0
 49 53  1  0
 50 51  1  0
 50 54  1  0
 51 52  2  0
 53 55  1  0
 53 56  1  0
 53 57  1  0
  1 51  1  0
M  END
>  <CHROM.1>  (17) 
-80.49157674,121.73773902,-9.80278763,122.31988195,-91.32301403,5.67726155
-25.55692558,-8.25886217,-3.04373844,-0.87904587,0.09998095,-2.12621327

>  <Name>  (17) 
design_17

>  <RI>  (17) 
27379400.000000

>  <Rbt.Current_Directory>  (17) 
/pylon5/mc5pksp/smaltr/gateway_workdirs/PROCESS_93251df5-8da2-4fa9-b874-71853b29d1ad

>  <Rbt.Executable>  (17) 
rbdock ($Id: //depot/dev/client3/rdock/2013.1/src/exe/rbdock.cxx#4 $)

>  <Rbt.Library>  (17) 
libRbt.so (2013.1, Build901 2013/11/27)

>  <Rbt.Parameter_File>  (17) 
/home/smaltr/software/rDock_2013.1_src//data/scripts/dock.prm

>  <Rbt.Receptor>  (17) 
/pylon5/mc5pksp/smaltr/gateway_workdirs/PROCESS_93251df5-8da2-4fa9-b874-71853b29d1ad/output/SnD-Target-Sep02/cavity/pocket_docking.prm

>  <SCORE>  (17) 
-14.972600

>  <SCORE.INTER>  (17) 
-20.605200

>  <SCORE.INTER.CONST>  (17) 
1

>  <SCORE.INTER.POLAR>  (17) 
-3.283030

>  <SCORE.INTER.REPUL>  (17) 
0.005960

>  <SCORE.INTER.ROT>  (17) 
6

>  <SCORE.INTER.VDW>  (17) 
-20.872700

>  <SCORE.INTER.norm>  (17) 
-0.735898

>  <SCORE.INTRA>  (17) 
5.632560

>  <SCORE.INTRA.DIHEDRAL>  (17) 
12.015300

>  <SCORE.INTRA.DIHEDRAL.0>  (17) 
5.521370

>  <SCORE.INTRA.POLAR>  (17) 
0

>  <SCORE.INTRA.POLAR.0>  (17) 
0

>  <SCORE.INTRA.REPUL>  (17) 
0

>  <SCORE.INTRA.REPUL.0>  (17) 
0

>  <SCORE.INTRA.VDW>  (17) 
-0.375072

>  <SCORE.INTRA.VDW.0>  (17) 
-1.460840

>  <SCORE.INTRA.norm>  (17) 
0.201163

>  <SCORE.RESTR>  (17) 
0

>  <SCORE.RESTR.CAVITY>  (17) 
0

>  <SCORE.RESTR.norm>  (17) 
0

>  <SCORE.SYSTEM>  (17) 
0

>  <SCORE.SYSTEM.CONST>  (17) 
0

>  <SCORE.SYSTEM.DIHEDRAL>  (17) 
0

>  <SCORE.SYSTEM.norm>  (17) 
0

>  <SCORE.heavy>  (17) 
28

>  <SCORE.norm>  (17) 
-0.534736

>  <SMILES>  (17) 
CCn1nnnc1-c1cccc(NC(=O)NCCc2nc3ccccc3[nH]2)c1

>  <Cycle>  (17) 
228

>  <MolWeight>  (17) 
376.424000

>  <LogP>  (17) 
2.600500

>  <QED>  (17) 
0.478609

>  <SAS>  (17) 
1.7058327930387298

$$$$
design_17
     RDKit          3D

 55 58  0  0  0  0  0  0  0  0999 V2000
  -20.0520   -6.6868   -0.8269 C   0  0  0  0  0  0  0  0  0  0  0  0
  -20.7732   -6.9639    0.4790 C   0  0  0  0  0  0  0  0  0  0  0  0
  -21.7088   -5.9598    0.8624 N   0  0  0  0  0  0  0  0  0  0  0  0
  -21.3637   -4.7999    1.4661 N   0  0  0  0  0  0  0  0  0  0  0  0
  -22.4333   -4.0747    1.6709 N   0  0  0  0  0  0  0  0  0  0  0  0
  -23.4432   -4.7408    1.2156 N   0  0  0  0  0  0  0  0  0  0  0  0
  -23.0215   -5.9426    0.6955 C   0  0  0  0  0  0  0  0  0  0  0  0
  -23.9536   -6.8886    0.0936 C   0  0  0  0  0  0  0  0  0  0  0  0
  -25.0071   -7.4528    0.7416 C   0  0  0  0  0  0  0  0  0  0  0  0
  -25.8547   -8.3799    0.1420 C   0  0  0  0  0  0  0  0  0  0  0  0
  -25.6208   -8.7474   -1.1714 C   0  0  0  0  0  0  0  0  0  0  0  0
  -24.5780   -8.2098   -1.8653 C   0  0  0  0  0  0  0  0  0  0  0  0
  -24.3261   -8.5568   -3.1932 N   0  0  0  0  0  0  0  0  0  0  0  0
  -24.9251   -9.5813   -3.9197 C   0  0  0  0  0  0  0  0  0  0  0  0
  -25.7934  -10.3249   -3.4423 O   0  0  0  0  0  0  0  0  0  0  0  0
  -24.5409   -9.8199   -5.3033 N   0  0  0  0  0  0  0  0  0  0  0  0
  -25.1571  -10.8701   -6.0428 C   0  0  0  0  0  0  0  0  0  0  0  0
  -25.8339  -10.3790   -7.3019 C   0  0  0  0  0  0  0  0  0  0  0  0
  -27.2608  -10.0492   -7.0187 C   0  0  0  0  0  0  0  0  0  0  0  0
  -27.8315  -10.0694   -5.7802 N   0  0  0  0  0  0  0  0  0  0  0  0
  -29.1228   -9.7183   -5.8717 C   0  0  0  0  0  0  0  0  0  0  0  0
  -30.1679   -9.5658   -4.9854 C   0  0  0  0  0  0  0  0  0  0  0  0
  -31.4267   -9.1815   -5.3807 C   0  0  0  0  0  0  0  0  0  0  0  0
  -31.6732   -8.9348   -6.7066 C   0  0  0  0  0  0  0  0  0  0  0  0
  -30.6595   -9.0759   -7.6157 C   0  0  0  0  0  0  0  0  0  0  0  0
  -29.4052   -9.4613   -7.2046 C   0  0  0  0  0  0  0  0  0  0  0  0
  -28.2345   -9.6787   -7.8569 N   0  0  0  0  0  0  0  0  0  0  0  0
  -23.7543   -7.2787   -1.2101 C   0  0  0  0  0  0  0  0  0  0  0  0
  -19.0484   -7.1100   -0.7840 H   0  0  0  0  0  0  0  0  0  0  0  0
  -20.6026   -7.1417   -1.6503 H   0  0  0  0  0  0  0  0  0  0  0  0
  -19.9853   -5.6103   -0.9845 H   0  0  0  0  0  0  0  0  0  0  0  0
  -20.0089   -6.9876    1.2557 H   0  0  0  0  0  0  0  0  0  0  0  0
  -21.3082   -7.9083    0.3794 H   0  0  0  0  0  0  0  0  0  0  0  0
  -25.1964   -7.1666    1.7762 H   0  0  0  0  0  0  0  0  0  0  0  0
  -26.6885   -8.8091    0.6976 H   0  0  0  0  0  0  0  0  0  0  0  0
  -26.2756   -9.4724   -1.6549 H   0  0  0  0  0  0  0  0  0  0  0  0
  -23.6342   -8.0047   -3.6796 H   0  0  0  0  0  0  0  0  0  0  0  0
  -25.9251  -11.3121   -5.4080 H   0  0  0  0  0  0  0  0  0  0  0  0
  -24.3938  -11.5980   -6.3178 H   0  0  0  0  0  0  0  0  0  0  0  0
  -25.7914  -11.1617   -8.0593 H   0  0  0  0  0  0  0  0  0  0  0  0
  -25.3216   -9.4875   -7.6638 H   0  0  0  0  0  0  0  0  0  0  0  0
  -29.9883   -9.7580   -3.9276 H   0  0  0  0  0  0  0  0  0  0  0  0
  -32.2238   -9.0736   -4.6451 H   0  0  0  0  0  0  0  0  0  0  0  0
  -32.6670   -8.6292   -7.0338 H   0  0  0  0  0  0  0  0  0  0  0  0
  -30.8477   -8.8816   -8.6716 H   0  0  0  0  0  0  0  0  0  0  0  0
  -28.1138   -9.5734   -8.8541 H   0  0  0  0  0  0  0  0  0  0  0  0
  -22.9190   -6.8457   -1.7604 H   0  0  0  0  0  0  0  0  0  0  0  0
  -21.5792   -8.8286   -6.6855 N   0  0  0  0  0  0  0  0  0  0  0  0
  -22.4564   -9.8140   -6.0599 C   0  0  0  0  0  0  0  0  0  0  0  0
  -23.8095   -9.2179   -5.7564 C   0  0  0  0  0  0  0  0  0  0  0  0
  -24.0825   -8.0449   -6.0243 O   0  0  0  0  0  0  0  0  0  0  0  0
  -21.9034   -7.8174   -6.8838 H   0  0  0  0  0  0  0  0  0  0  0  0
  -22.0087  -10.1337   -5.1656 H   0  0  0  0  0  0  0  0  0  0  0  0
  -22.6058  -10.6573   -6.7601 H   0  0  0  0  0  0  0  0  0  0  0  0
  -20.7670   -8.7539   -6.0898 H   0  0  0  0  0  0  0  0  0  0  0  0
  1  2  1  0
  2  3  1  0
  3  4  1  0
  4  5  2  0
  5  6  1  0
  6  7  2  0
  7  8  1  0
  8  9  2  0
  9 10  1  0
 10 11  2  0
 11 12  1  0
 12 13  1  0
 13 14  1  0
 14 15  2  0
 14 16  1  0
 16 17  1  0
 17 18  1  0
 18 19  1  0
 19 20  2  0
 20 21  1  0
 21 22  2  0
 22 23  1  0
 23 24  2  0
 24 25  1  0
 25 26  2  0
 26 27  1  0
 12 28  2  0
  3  7  1  0
  8 28  1  0
 19 27  1  0
 21 26  1  0
  1 29  1  0
  1 30  1  0
  1 31  1  0
  2 32  1  0
  2 33  1  0
  9 34  1  0
 10 35  1  0
 11 36  1  0
 13 37  1  0
 17 38  1  0
 17 39  1  0
 18 40  1  0
 18 41  1  0
 22 42  1  0
 23 43  1  0
 24 44  1  0
 25 45  1  0
 27 46  1  0
 28 47  1  0
 48 49  1  0
 48 52  1  0
 49 50  1  0
 49 53  1  0
 49 54  1  0
 50 51  2  0
 48 55  1  0
 16 50  1  0
M  END
>  <CHROM.1>  (18) 
-80.49157674,121.73773902,-9.80278763,122.31988195,-91.32301403,5.67726155
-25.55692558,-8.25886217,-3.04373844,-0.87904587,0.09998095,-2.12621327

>  <Name>  (18) 
design_17

>  <RI>  (18) 
27379400.000000

>  <Rbt.Current_Directory>  (18) 
/pylon5/mc5pksp/smaltr/gateway_workdirs/PROCESS_93251df5-8da2-4fa9-b874-71853b29d1ad

>  <Rbt.Executable>  (18) 
rbdock ($Id: //depot/dev/client3/rdock/2013.1/src/exe/rbdock.cxx#4 $)

>  <Rbt.Library>  (18) 
libRbt.so (2013.1, Build901 2013/11/27)

>  <Rbt.Parameter_File>  (18) 
/home/smaltr/software/rDock_2013.1_src//data/scripts/dock.prm

>  <Rbt.Receptor>  (18) 
/pylon5/mc5pksp/smaltr/gateway_workdirs/PROCESS_93251df5-8da2-4fa9-b874-71853b29d1ad/output/SnD-Target-Sep02/cavity/pocket_docking.prm

>  <SCORE>  (18) 
-14.972600

>  <SCORE.INTER>  (18) 
-20.605200

>  <SCORE.INTER.CONST>  (18) 
1

>  <SCORE.INTER.POLAR>  (18) 
-3.283030

>  <SCORE.INTER.REPUL>  (18) 
0.005960

>  <SCORE.INTER.ROT>  (18) 
6

>  <SCORE.INTER.VDW>  (18) 
-20.872700

>  <SCORE.INTER.norm>  (18) 
-0.735898

>  <SCORE.INTRA>  (18) 
5.632560

>  <SCORE.INTRA.DIHEDRAL>  (18) 
12.015300

>  <SCORE.INTRA.DIHEDRAL.0>  (18) 
5.521370

>  <SCORE.INTRA.POLAR>  (18) 
0

>  <SCORE.INTRA.POLAR.0>  (18) 
0

>  <SCORE.INTRA.REPUL>  (18) 
0

>  <SCORE.INTRA.REPUL.0>  (18) 
0

>  <SCORE.INTRA.VDW>  (18) 
-0.375072

>  <SCORE.INTRA.VDW.0>  (18) 
-1.460840

>  <SCORE.INTRA.norm>  (18) 
0.201163

>  <SCORE.RESTR>  (18) 
0

>  <SCORE.RESTR.CAVITY>  (18) 
0

>  <SCORE.RESTR.norm>  (18) 
0

>  <SCORE.SYSTEM>  (18) 
0

>  <SCORE.SYSTEM.CONST>  (18) 
0

>  <SCORE.SYSTEM.DIHEDRAL>  (18) 
0

>  <SCORE.SYSTEM.norm>  (18) 
0

>  <SCORE.heavy>  (18) 
28

>  <SCORE.norm>  (18) 
-0.534736

>  <SMILES>  (18) 
CCn1nnnc1-c1cccc(NC(=O)NCCc2nc3ccccc3[nH]2)c1

>  <Cycle>  (18) 
228

>  <MolWeight>  (18) 
376.424000

>  <LogP>  (18) 
2.600500

>  <QED>  (18) 
0.478609

>  <SAS>  (18) 
1.4387843451335085

$$$$
design_4
     RDKit          3D

 56 59  0  0  0  0  0  0  0  0999 V2000
  -19.2766    1.9112    1.4835 C   0  0  0  0  0  0  0  0  0  0  0  0
  -18.0586    1.2360    0.9128 C   0  0  0  0  0  0  0  0  0  0  0  0
  -18.2495   -0.2236    0.9809 N   0  0  0  0  0  0  0  0  0  0  0  0
  -17.1222   -1.0221    1.2172 C   0  0  0  0  0  0  0  0  0  0  0  0
  -16.0001   -0.4859    1.3623 O   0  0  0  0  0  0  0  0  0  0  0  0
  -17.2375   -2.4712    1.2968 C   0  0  0  0  0  0  0  0  0  0  0  0
  -16.4010   -3.2509    2.0606 C   0  0  0  0  0  0  0  0  0  0  0  0
  -16.5809   -4.6181    2.0785 C   0  0  0  0  0  0  0  0  0  0  0  0
  -17.5910   -5.2181    1.3392 C   0  0  0  0  0  0  0  0  0  0  0  0
  -18.4451   -4.4662    0.5647 C   0  0  0  0  0  0  0  0  0  0  0  0
  -19.5404   -5.0378   -0.2464 C   0  0  0  0  0  0  0  0  0  0  0  0
  -19.0831   -5.1143   -1.6209 N   0  0  0  0  0  0  0  0  0  0  0  0
  -18.7311   -6.4742   -1.9853 C   0  0  0  0  0  0  0  0  0  0  0  0
  -17.7256   -6.5228   -3.0562 C   0  0  0  0  0  0  0  0  0  0  0  0
  -16.6952   -7.3868   -3.0260 N   0  0  0  0  0  0  0  0  0  0  0  0
  -15.7901   -7.4016   -4.0280 C   0  0  0  0  0  0  0  0  0  0  0  0
  -14.7328   -8.3028   -3.9769 C   0  0  0  0  0  0  0  0  0  0  0  0
  -13.8248   -8.2903   -5.0196 C   0  0  0  0  0  0  0  0  0  0  0  0
  -13.9523   -7.4159   -6.0841 C   0  0  0  0  0  0  0  0  0  0  0  0
  -14.9986   -6.5395   -6.1133 C   0  0  0  0  0  0  0  0  0  0  0  0
  -15.9283   -6.5209   -5.0890 C   0  0  0  0  0  0  0  0  0  0  0  0
  -16.9774   -5.6366   -5.1259 C   0  0  0  0  0  0  0  0  0  0  0  0
  -17.0892   -4.8431   -6.0963 O   0  0  0  0  0  0  0  0  0  0  0  0
  -17.8575   -5.6628   -4.0957 N   0  0  0  0  0  0  0  0  0  0  0  0
  -18.2469   -3.1128    0.5631 C   0  0  0  0  0  0  0  0  0  0  0  0
  -20.1137    1.2131    1.4794 H   0  0  0  0  0  0  0  0  0  0  0  0
  -19.0721    2.2264    2.5067 H   0  0  0  0  0  0  0  0  0  0  0  0
  -19.5274    2.7820    0.8777 H   0  0  0  0  0  0  0  0  0  0  0  0
  -17.1753    1.5210    1.4843 H   0  0  0  0  0  0  0  0  0  0  0  0
  -17.9224    1.5404   -0.1249 H   0  0  0  0  0  0  0  0  0  0  0  0
  -19.1639   -0.6356    0.8611 H   0  0  0  0  0  0  0  0  0  0  0  0
  -15.6037   -2.7929    2.6460 H   0  0  0  0  0  0  0  0  0  0  0  0
  -15.9189   -5.2379    2.6832 H   0  0  0  0  0  0  0  0  0  0  0  0
  -17.7096   -6.3011    1.3725 H   0  0  0  0  0  0  0  0  0  0  0  0
  -20.4307   -4.4129   -0.1766 H   0  0  0  0  0  0  0  0  0  0  0  0
  -19.7908   -6.0343    0.1175 H   0  0  0  0  0  0  0  0  0  0  0  0
  -19.8191   -4.7895   -2.2316 H   0  0  0  0  0  0  0  0  0  0  0  0
  -19.6327   -6.9644   -2.3526 H   0  0  0  0  0  0  0  0  0  0  0  0
  -18.3329   -6.9813   -1.1065 H   0  0  0  0  0  0  0  0  0  0  0  0
  -14.6233   -8.9960   -3.1429 H   0  0  0  0  0  0  0  0  0  0  0  0
  -12.9870   -8.9873   -5.0024 H   0  0  0  0  0  0  0  0  0  0  0  0
  -13.2226   -7.4267   -6.8937 H   0  0  0  0  0  0  0  0  0  0  0  0
  -15.1023   -5.8490   -6.9503 H   0  0  0  0  0  0  0  0  0  0  0  0
  -18.9114   -2.4972   -0.0431 H   0  0  0  0  0  0  0  0  0  0  0  0
  -20.7425   -3.1682   -4.1244 N   0  0  0  0  0  0  0  0  0  0  0  0
  -19.4912   -2.7049   -4.1546 C   0  0  0  0  0  0  0  0  0  0  0  0
  -18.4376   -3.5429   -4.1461 N   0  0  0  0  0  0  0  0  0  0  0  0
  -18.6623   -4.9999   -4.1028 C   0  0  0  0  0  0  0  0  0  0  0  0
  -19.9275   -5.4563   -4.0737 C   0  0  0  0  0  0  0  0  0  0  0  0
  -21.0283   -4.4708   -4.0851 C   0  0  0  0  0  0  0  0  0  0  0  0
  -22.1740   -4.8875   -4.0580 O   0  0  0  0  0  0  0  0  0  0  0  0
  -19.2920   -1.3967   -4.1927 N   0  0  0  0  0  0  0  0  0  0  0  0
  -21.5457   -2.5870   -4.1293 H   0  0  0  0  0  0  0  0  0  0  0  0
  -20.1711   -6.4992   -4.0416 H   0  0  0  0  0  0  0  0  0  0  0  0
  -18.3471   -1.0773   -4.2144 H   0  0  0  0  0  0  0  0  0  0  0  0
  -20.0482   -0.7456   -4.2003 H   0  0  0  0  0  0  0  0  0  0  0  0
  1  2  1  0
  2  3  1  0
  3  4  1  0
  4  5  2  0
  4  6  1  0
  6  7  2  0
  7  8  1  0
  8  9  2  0
  9 10  1  0
 10 11  1  0
 11 12  1  0
 12 13  1  0
 13 14  1  0
 14 15  2  0
 15 16  1  0
 16 17  2  0
 17 18  1  0
 18 19  2  0
 19 20  1  0
 20 21  2  0
 21 22  1  0
 22 23  2  0
 22 24  1  0
 10 25  2  0
  6 25  1  0
 14 24  1  0
 16 21  1  0
  1 26  1  0
  1 27  1  0
  1 28  1  0
  2 29  1  0
  2 30  1  0
  3 31  1  0
  7 32  1  0
  8 33  1  0
  9 34  1  0
 11 35  1  0
 11 36  1  0
 12 37  1  0
 13 38  1  0
 13 39  1  0
 17 40  1  0
 18 41  1  0
 19 42  1  0
 20 43  1  0
 25 44  1  0
 45 46  1  0
 45 50  1  0
 45 53  1  0
 46 47  2  0
 46 52  1  0
 47 48  1  0
 48 49  2  0
 49 50  1  0
 49 54  1  0
 50 51  2  0
 52 55  1  0
 52 56  1  0
 24 48  1  0
M  END
>  <CHROM.1>  (19) 
-145.78732048,-150.50072502,-100.04386824,103.62672716,-153.27732802,137.76008317
-17.09621673,-4.41790035,-1.64771840,-2.75627770,-1.30836700,2.76180462

>  <Name>  (19) 
design_4

>  <RI>  (19) 
23619200.000000

>  <Rbt.Current_Directory>  (19) 
/pylon5/mc5pksp/smaltr/gateway_workdirs/PROCESS_93251df5-8da2-4fa9-b874-71853b29d1ad

>  <Rbt.Executable>  (19) 
rbdock ($Id: //depot/dev/client3/rdock/2013.1/src/exe/rbdock.cxx#4 $)

>  <Rbt.Library>  (19) 
libRbt.so (2013.1, Build901 2013/11/27)

>  <Rbt.Parameter_File>  (19) 
/home/smaltr/software/rDock_2013.1_src//data/scripts/dock.prm

>  <Rbt.Receptor>  (19) 
/pylon5/mc5pksp/smaltr/gateway_workdirs/PROCESS_93251df5-8da2-4fa9-b874-71853b29d1ad/output/SnD-Target-Sep02/cavity/pocket_docking.prm

>  <SCORE>  (19) 
-19.110900

>  <SCORE.INTER>  (19) 
-20.563400

>  <SCORE.INTER.CONST>  (19) 
1

>  <SCORE.INTER.POLAR>  (19) 
-1.616940

>  <SCORE.INTER.REPUL>  (19) 
0

>  <SCORE.INTER.ROT>  (19) 
6

>  <SCORE.INTER.VDW>  (19) 
-26.465800

>  <SCORE.INTER.norm>  (19) 
-0.822537

>  <SCORE.INTRA>  (19) 
1.452490

>  <SCORE.INTRA.DIHEDRAL>  (19) 
6.095080

>  <SCORE.INTRA.DIHEDRAL.0>  (19) 
2.644290

>  <SCORE.INTRA.POLAR>  (19) 
0.047540

>  <SCORE.INTRA.POLAR.0>  (19) 
-0.047540

>  <SCORE.INTRA.REPUL>  (19) 
0

>  <SCORE.INTRA.REPUL.0>  (19) 
0

>  <SCORE.INTRA.VDW>  (19) 
-1.756680

>  <SCORE.INTRA.VDW.0>  (19) 
0.178872

>  <SCORE.INTRA.norm>  (19) 
0.058100

>  <SCORE.RESTR>  (19) 
0

>  <SCORE.RESTR.CAVITY>  (19) 
0

>  <SCORE.RESTR.norm>  (19) 
0

>  <SCORE.SYSTEM>  (19) 
0

>  <SCORE.SYSTEM.CONST>  (19) 
0

>  <SCORE.SYSTEM.DIHEDRAL>  (19) 
0

>  <SCORE.SYSTEM.norm>  (19) 
0

>  <SCORE.heavy>  (19) 
25

>  <SCORE.norm>  (19) 
-0.764437

>  <SMILES>  (19) 
CCNC(=O)c1cccc(CNCc2nc3ccccc3c(=O)[nH]2)c1

>  <Cycle>  (19) 
228

>  <MolWeight>  (19) 
336.395000

>  <LogP>  (19) 
1.962600

>  <QED>  (19) 
0.642134

>  <SAS>  (19) 
1.6812958808794773

$$$$
design_4
     RDKit          3D

 52 55  0  0  0  0  0  0  0  0999 V2000
  -19.2766    1.9112    1.4835 C   0  0  0  0  0  0  0  0  0  0  0  0
  -18.0586    1.2360    0.9128 C   0  0  0  0  0  0  0  0  0  0  0  0
  -18.2495   -0.2236    0.9809 N   0  0  0  0  0  0  0  0  0  0  0  0
  -17.1222   -1.0221    1.2172 C   0  0  0  0  0  0  0  0  0  0  0  0
  -16.0001   -0.4859    1.3623 O   0  0  0  0  0  0  0  0  0  0  0  0
  -17.2375   -2.4712    1.2968 C   0  0  0  0  0  0  0  0  0  0  0  0
  -16.4010   -3.2509    2.0606 C   0  0  0  0  0  0  0  0  0  0  0  0
  -16.5809   -4.6181    2.0785 C   0  0  0  0  0  0  0  0  0  0  0  0
  -17.5910   -5.2181    1.3392 C   0  0  0  0  0  0  0  0  0  0  0  0
  -18.4451   -4.4662    0.5647 C   0  0  0  0  0  0  0  0  0  0  0  0
  -19.5404   -5.0378   -0.2464 C   0  0  0  0  0  0  0  0  0  0  0  0
  -19.0831   -5.1143   -1.6209 N   0  0  0  0  0  0  0  0  0  0  0  0
  -18.7311   -6.4742   -1.9853 C   0  0  0  0  0  0  0  0  0  0  0  0
  -17.7256   -6.5228   -3.0562 C   0  0  0  0  0  0  0  0  0  0  0  0
  -16.6952   -7.3868   -3.0260 N   0  0  0  0  0  0  0  0  0  0  0  0
  -15.7901   -7.4016   -4.0280 C   0  0  0  0  0  0  0  0  0  0  0  0
  -14.7328   -8.3028   -3.9769 C   0  0  0  0  0  0  0  0  0  0  0  0
  -13.8248   -8.2903   -5.0196 C   0  0  0  0  0  0  0  0  0  0  0  0
  -13.9523   -7.4159   -6.0841 C   0  0  0  0  0  0  0  0  0  0  0  0
  -14.9986   -6.5395   -6.1133 C   0  0  0  0  0  0  0  0  0  0  0  0
  -15.9283   -6.5209   -5.0890 C   0  0  0  0  0  0  0  0  0  0  0  0
  -16.9774   -5.6366   -5.1259 C   0  0  0  0  0  0  0  0  0  0  0  0
  -17.0892   -4.8431   -6.0963 O   0  0  0  0  0  0  0  0  0  0  0  0
  -17.8575   -5.6628   -4.0957 N   0  0  0  0  0  0  0  0  0  0  0  0
  -18.2469   -3.1128    0.5631 C   0  0  0  0  0  0  0  0  0  0  0  0
  -20.1137    1.2131    1.4794 H   0  0  0  0  0  0  0  0  0  0  0  0
  -19.0721    2.2264    2.5067 H   0  0  0  0  0  0  0  0  0  0  0  0
  -19.5274    2.7820    0.8777 H   0  0  0  0  0  0  0  0  0  0  0  0
  -17.1753    1.5210    1.4843 H   0  0  0  0  0  0  0  0  0  0  0  0
  -17.9224    1.5404   -0.1249 H   0  0  0  0  0  0  0  0  0  0  0  0
  -19.1639   -0.6356    0.8611 H   0  0  0  0  0  0  0  0  0  0  0  0
  -15.6037   -2.7929    2.6460 H   0  0  0  0  0  0  0  0  0  0  0  0
  -15.9189   -5.2379    2.6832 H   0  0  0  0  0  0  0  0  0  0  0  0
  -17.7096   -6.3011    1.3725 H   0  0  0  0  0  0  0  0  0  0  0  0
  -20.4307   -4.4129   -0.1766 H   0  0  0  0  0  0  0  0  0  0  0  0
  -19.7908   -6.0343    0.1175 H   0  0  0  0  0  0  0  0  0  0  0  0
  -19.8191   -4.7895   -2.2316 H   0  0  0  0  0  0  0  0  0  0  0  0
  -19.6327   -6.9644   -2.3526 H   0  0  0  0  0  0  0  0  0  0  0  0
  -18.3329   -6.9813   -1.1065 H   0  0  0  0  0  0  0  0  0  0  0  0
  -14.6233   -8.9960   -3.1429 H   0  0  0  0  0  0  0  0  0  0  0  0
  -12.9870   -8.9873   -5.0024 H   0  0  0  0  0  0  0  0  0  0  0  0
  -13.2226   -7.4267   -6.8937 H   0  0  0  0  0  0  0  0  0  0  0  0
  -15.1023   -5.8490   -6.9503 H   0  0  0  0  0  0  0  0  0  0  0  0
  -18.9114   -2.4972   -0.0431 H   0  0  0  0  0  0  0  0  0  0  0  0
  -20.6723   -4.1144   -3.8957 N   0  0  0  0  0  0  0  0  0  0  0  0
  -19.8500   -3.1739   -4.3225 C   0  0  0  0  0  0  0  0  0  0  0  0
  -18.5973   -3.6906   -4.4570 N   0  0  0  0  0  0  0  0  0  0  0  0
  -18.6525   -5.0080   -4.1027 C   0  0  0  0  0  0  0  0  0  0  0  0
  -19.9255   -5.3085   -3.7628 C   0  0  0  0  0  0  0  0  0  0  0  0
  -20.1203   -2.1801   -4.5269 H   0  0  0  0  0  0  0  0  0  0  0  0
  -17.7673   -3.1847   -4.7665 H   0  0  0  0  0  0  0  0  0  0  0  0
  -20.2893   -6.2455   -3.4593 H   0  0  0  0  0  0  0  0  0  0  0  0
  1  2  1  0
  2  3  1  0
  3  4  1  0
  4  5  2  0
  4  6  1  0
  6  7  2  0
  7  8  1  0
  8  9  2  0
  9 10  1  0
 10 11  1  0
 11 12  1  0
 12 13  1  0
 13 14  1  0
 14 15  2  0
 15 16  1  0
 16 17  2  0
 17 18  1  0
 18 19  2  0
 19 20  1  0
 20 21  2  0
 21 22  1  0
 22 23  2  0
 22 24  1  0
 10 25  2  0
  6 25  1  0
 14 24  1  0
 16 21  1  0
  1 26  1  0
  1 27  1  0
  1 28  1  0
  2 29  1  0
  2 30  1  0
  3 31  1  0
  7 32  1  0
  8 33  1  0
  9 34  1  0
 11 35  1  0
 11 36  1  0
 12 37  1  0
 13 38  1  0
 13 39  1  0
 17 40  1  0
 18 41  1  0
 19 42  1  0
 20 43  1  0
 25 44  1  0
 45 46  2  0
 45 49  1  0
 46 50  1  0
 46 47  1  0
 47 48  1  0
 47 51  1  0
 48 49  2  0
 49 52  1  0
 24 48  1  0
M  END
>  <CHROM.1>  (20) 
-145.78732048,-150.50072502,-100.04386824,103.62672716,-153.27732802,137.76008317
-17.09621673,-4.41790035,-1.64771840,-2.75627770,-1.30836700,2.76180462

>  <Name>  (20) 
design_4

>  <RI>  (20) 
23619200.000000

>  <Rbt.Current_Directory>  (20) 
/pylon5/mc5pksp/smaltr/gateway_workdirs/PROCESS_93251df5-8da2-4fa9-b874-71853b29d1ad

>  <Rbt.Executable>  (20) 
rbdock ($Id: //depot/dev/client3/rdock/2013.1/src/exe/rbdock.cxx#4 $)

>  <Rbt.Library>  (20) 
libRbt.so (2013.1, Build901 2013/11/27)

>  <Rbt.Parameter_File>  (20) 
/home/smaltr/software/rDock_2013.1_src//data/scripts/dock.prm

>  <Rbt.Receptor>  (20) 
/pylon5/mc5pksp/smaltr/gateway_workdirs/PROCESS_93251df5-8da2-4fa9-b874-71853b29d1ad/output/SnD-Target-Sep02/cavity/pocket_docking.prm

>  <SCORE>  (20) 
-19.110900

>  <SCORE.INTER>  (20) 
-20.563400

>  <SCORE.INTER.CONST>  (20) 
1

>  <SCORE.INTER.POLAR>  (20) 
-1.616940

>  <SCORE.INTER.REPUL>  (20) 
0

>  <SCORE.INTER.ROT>  (20) 
6

>  <SCORE.INTER.VDW>  (20) 
-26.465800

>  <SCORE.INTER.norm>  (20) 
-0.822537

>  <SCORE.INTRA>  (20) 
1.452490

>  <SCORE.INTRA.DIHEDRAL>  (20) 
6.095080

>  <SCORE.INTRA.DIHEDRAL.0>  (20) 
2.644290

>  <SCORE.INTRA.POLAR>  (20) 
0.047540

>  <SCORE.INTRA.POLAR.0>  (20) 
-0.047540

>  <SCORE.INTRA.REPUL>  (20) 
0

>  <SCORE.INTRA.REPUL.0>  (20) 
0

>  <SCORE.INTRA.VDW>  (20) 
-1.756680

>  <SCORE.INTRA.VDW.0>  (20) 
0.178872

>  <SCORE.INTRA.norm>  (20) 
0.058100

>  <SCORE.RESTR>  (20) 
0

>  <SCORE.RESTR.CAVITY>  (20) 
0

>  <SCORE.RESTR.norm>  (20) 
0

>  <SCORE.SYSTEM>  (20) 
0

>  <SCORE.SYSTEM.CONST>  (20) 
0

>  <SCORE.SYSTEM.DIHEDRAL>  (20) 
0

>  <SCORE.SYSTEM.norm>  (20) 
0

>  <SCORE.heavy>  (20) 
25

>  <SCORE.norm>  (20) 
-0.764437

>  <SMILES>  (20) 
CCNC(=O)c1cccc(CNCc2nc3ccccc3c(=O)[nH]2)c1

>  <Cycle>  (20) 
228

>  <MolWeight>  (20) 
336.395000

>  <LogP>  (20) 
1.962600

>  <QED>  (20) 
0.642134

>  <SAS>  (20) 
1.3630766381166906

$$$$
design_4
     RDKit          3D

 54 57  0  0  0  0  0  0  0  0999 V2000
  -19.2766    1.9112    1.4835 C   0  0  0  0  0  0  0  0  0  0  0  0
  -18.0586    1.2360    0.9128 C   0  0  0  0  0  0  0  0  0  0  0  0
  -18.2495   -0.2236    0.9809 N   0  0  0  0  0  0  0  0  0  0  0  0
  -17.1222   -1.0221    1.2172 C   0  0  0  0  0  0  0  0  0  0  0  0
  -16.0001   -0.4859    1.3623 O   0  0  0  0  0  0  0  0  0  0  0  0
  -17.2375   -2.4712    1.2968 C   0  0  0  0  0  0  0  0  0  0  0  0
  -16.4010   -3.2509    2.0606 C   0  0  0  0  0  0  0  0  0  0  0  0
  -16.5809   -4.6181    2.0785 C   0  0  0  0  0  0  0  0  0  0  0  0
  -17.5910   -5.2181    1.3392 C   0  0  0  0  0  0  0  0  0  0  0  0
  -18.4451   -4.4662    0.5647 C   0  0  0  0  0  0  0  0  0  0  0  0
  -19.5404   -5.0378   -0.2464 C   0  0  0  0  0  0  0  0  0  0  0  0
  -19.0831   -5.1143   -1.6209 N   0  0  0  0  0  0  0  0  0  0  0  0
  -18.7311   -6.4742   -1.9853 C   0  0  0  0  0  0  0  0  0  0  0  0
  -17.7256   -6.5228   -3.0562 C   0  0  0  0  0  0  0  0  0  0  0  0
  -16.6952   -7.3868   -3.0260 N   0  0  0  0  0  0  0  0  0  0  0  0
  -15.7901   -7.4016   -4.0280 C   0  0  0  0  0  0  0  0  0  0  0  0
  -14.7328   -8.3028   -3.9769 C   0  0  0  0  0  0  0  0  0  0  0  0
  -13.8248   -8.2903   -5.0196 C   0  0  0  0  0  0  0  0  0  0  0  0
  -13.9523   -7.4159   -6.0841 C   0  0  0  0  0  0  0  0  0  0  0  0
  -14.9986   -6.5395   -6.1133 C   0  0  0  0  0  0  0  0  0  0  0  0
  -15.9283   -6.5209   -5.0890 C   0  0  0  0  0  0  0  0  0  0  0  0
  -16.9774   -5.6366   -5.1259 C   0  0  0  0  0  0  0  0  0  0  0  0
  -17.0892   -4.8431   -6.0963 O   0  0  0  0  0  0  0  0  0  0  0  0
  -17.8575   -5.6628   -4.0957 N   0  0  0  0  0  0  0  0  0  0  0  0
  -18.2469   -3.1128    0.5631 C   0  0  0  0  0  0  0  0  0  0  0  0
  -20.1137    1.2131    1.4794 H   0  0  0  0  0  0  0  0  0  0  0  0
  -19.0721    2.2264    2.5067 H   0  0  0  0  0  0  0  0  0  0  0  0
  -19.5274    2.7820    0.8777 H   0  0  0  0  0  0  0  0  0  0  0  0
  -17.1753    1.5210    1.4843 H   0  0  0  0  0  0  0  0  0  0  0  0
  -17.9224    1.5404   -0.1249 H   0  0  0  0  0  0  0  0  0  0  0  0
  -19.1639   -0.6356    0.8611 H   0  0  0  0  0  0  0  0  0  0  0  0
  -15.6037   -2.7929    2.6460 H   0  0  0  0  0  0  0  0  0  0  0  0
  -17.7096   -6.3011    1.3725 H   0  0  0  0  0  0  0  0  0  0  0  0
  -20.4307   -4.4129   -0.1766 H   0  0  0  0  0  0  0  0  0  0  0  0
  -19.7908   -6.0343    0.1175 H   0  0  0  0  0  0  0  0  0  0  0  0
  -19.8191   -4.7895   -2.2316 H   0  0  0  0  0  0  0  0  0  0  0  0
  -19.6327   -6.9644   -2.3526 H   0  0  0  0  0  0  0  0  0  0  0  0
  -18.3329   -6.9813   -1.1065 H   0  0  0  0  0  0  0  0  0  0  0  0
  -14.6233   -8.9960   -3.1429 H   0  0  0  0  0  0  0  0  0  0  0  0
  -12.9870   -8.9873   -5.0024 H   0  0  0  0  0  0  0  0  0  0  0  0
  -13.2226   -7.4267   -6.8937 H   0  0  0  0  0  0  0  0  0  0  0  0
  -15.1023   -5.8490   -6.9503 H   0  0  0  0  0  0  0  0  0  0  0  0
  -18.6371   -5.0207   -4.1026 H   0  0  0  0  0  0  0  0  0  0  0  0
  -18.9114   -2.4972   -0.0431 H   0  0  0  0  0  0  0  0  0  0  0  0
  -15.2724   -6.7565    4.0940 O   0  0  0  0  0  0  0  0  0  0  0  0
  -14.1555   -6.1506    3.6303 C   0  0  0  0  0  0  0  0  0  0  0  0
  -14.5267   -5.1693    2.7213 C   0  0  0  0  0  0  0  0  0  0  0  0
  -15.9220   -5.2350    2.6803 C   0  0  0  0  0  0  0  0  0  0  0  0
  -16.3223   -6.2154    3.5326 N   0  0  0  0  0  0  0  0  0  0  0  0
  -12.7571   -6.5168    4.0611 C   0  0  0  0  0  0  0  0  0  0  0  0
  -13.8765   -4.5075    2.1727 H   0  0  0  0  0  0  0  0  0  0  0  0
  -12.4681   -5.9266    4.9294 H   0  0  0  0  0  0  0  0  0  0  0  0
  -12.7152   -7.5726    4.3278 H   0  0  0  0  0  0  0  0  0  0  0  0
  -12.0476   -6.3320    3.2548 H   0  0  0  0  0  0  0  0  0  0  0  0
  1  2  1  0
  2  3  1  0
  3  4  1  0
  4  5  2  0
  4  6  1  0
  6  7  2  0
  7  8  1  0
  8  9  2  0
  9 10  1  0
 10 11  1  0
 11 12  1  0
 12 13  1  0
 13 14  1  0
 14 15  2  0
 15 16  1  0
 16 17  2  0
 17 18  1  0
 18 19  2  0
 19 20  1  0
 20 21  2  0
 21 22  1  0
 22 23  2  0
 22 24  1  0
 10 25  2  0
  6 25  1  0
 14 24  1  0
 16 21  1  0
  1 26  1  0
  1 27  1  0
  1 28  1  0
  2 29  1  0
  2 30  1  0
  3 31  1  0
  7 32  1  0
  9 33  1  0
 11 34  1  0
 11 35  1  0
 12 36  1  0
 13 37  1  0
 13 38  1  0
 17 39  1  0
 18 40  1  0
 19 41  1  0
 20 42  1  0
 24 43  1  0
 25 44  1  0
 45 46  1  0
 45 49  1  0
 46 47  2  0
 46 50  1  0
 47 48  1  0
 47 51  1  0
 48 49  2  0
 50 52  1  0
 50 53  1  0
 50 54  1  0
  8 48  1  0
M  END
>  <CHROM.1>  (21) 
-145.78732048,-150.50072502,-100.04386824,103.62672716,-153.27732802,137.76008317
-17.09621673,-4.41790035,-1.64771840,-2.75627770,-1.30836700,2.76180462

>  <Name>  (21) 
design_4

>  <RI>  (21) 
23619200.000000

>  <Rbt.Current_Directory>  (21) 
/pylon5/mc5pksp/smaltr/gateway_workdirs/PROCESS_93251df5-8da2-4fa9-b874-71853b29d1ad

>  <Rbt.Executable>  (21) 
rbdock ($Id: //depot/dev/client3/rdock/2013.1/src/exe/rbdock.cxx#4 $)

>  <Rbt.Library>  (21) 
libRbt.so (2013.1, Build901 2013/11/27)

>  <Rbt.Parameter_File>  (21) 
/home/smaltr/software/rDock_2013.1_src//data/scripts/dock.prm

>  <Rbt.Receptor>  (21) 
/pylon5/mc5pksp/smaltr/gateway_workdirs/PROCESS_93251df5-8da2-4fa9-b874-71853b29d1ad/output/SnD-Target-Sep02/cavity/pocket_docking.prm

>  <SCORE>  (21) 
-19.110900

>  <SCORE.INTER>  (21) 
-20.563400

>  <SCORE.INTER.CONST>  (21) 
1

>  <SCORE.INTER.POLAR>  (21) 
-1.616940

>  <SCORE.INTER.REPUL>  (21) 
0

>  <SCORE.INTER.ROT>  (21) 
6

>  <SCORE.INTER.VDW>  (21) 
-26.465800

>  <SCORE.INTER.norm>  (21) 
-0.822537

>  <SCORE.INTRA>  (21) 
1.452490

>  <SCORE.INTRA.DIHEDRAL>  (21) 
6.095080

>  <SCORE.INTRA.DIHEDRAL.0>  (21) 
2.644290

>  <SCORE.INTRA.POLAR>  (21) 
0.047540

>  <SCORE.INTRA.POLAR.0>  (21) 
-0.047540

>  <SCORE.INTRA.REPUL>  (21) 
0

>  <SCORE.INTRA.REPUL.0>  (21) 
0

>  <SCORE.INTRA.VDW>  (21) 
-1.756680

>  <SCORE.INTRA.VDW.0>  (21) 
0.178872

>  <SCORE.INTRA.norm>  (21) 
0.058100

>  <SCORE.RESTR>  (21) 
0

>  <SCORE.RESTR.CAVITY>  (21) 
0

>  <SCORE.RESTR.norm>  (21) 
0

>  <SCORE.SYSTEM>  (21) 
0

>  <SCORE.SYSTEM.CONST>  (21) 
0

>  <SCORE.SYSTEM.DIHEDRAL>  (21) 
0

>  <SCORE.SYSTEM.norm>  (21) 
0

>  <SCORE.heavy>  (21) 
25

>  <SCORE.norm>  (21) 
-0.764437

>  <SMILES>  (21) 
CCNC(=O)c1cccc(CNCc2nc3ccccc3c(=O)[nH]2)c1

>  <Cycle>  (21) 
228

>  <MolWeight>  (21) 
336.395000

>  <LogP>  (21) 
1.962600

>  <QED>  (21) 
0.642134

>  <SAS>  (21) 
1.3183429949785888

$$$$
design_4
     RDKit          3D

 54 57  0  0  0  0  0  0  0  0999 V2000
  -19.2766    1.9112    1.4835 C   0  0  0  0  0  0  0  0  0  0  0  0
  -18.0586    1.2360    0.9128 C   0  0  0  0  0  0  0  0  0  0  0  0
  -18.2495   -0.2236    0.9809 N   0  0  0  0  0  0  0  0  0  0  0  0
  -17.1222   -1.0221    1.2172 C   0  0  0  0  0  0  0  0  0  0  0  0
  -16.0001   -0.4859    1.3623 O   0  0  0  0  0  0  0  0  0  0  0  0
  -17.2375   -2.4712    1.2968 C   0  0  0  0  0  0  0  0  0  0  0  0
  -16.4010   -3.2509    2.0606 C   0  0  0  0  0  0  0  0  0  0  0  0
  -16.5809   -4.6181    2.0785 C   0  0  0  0  0  0  0  0  0  0  0  0
  -17.5910   -5.2181    1.3392 C   0  0  0  0  0  0  0  0  0  0  0  0
  -18.4451   -4.4662    0.5647 C   0  0  0  0  0  0  0  0  0  0  0  0
  -19.5404   -5.0378   -0.2464 C   0  0  0  0  0  0  0  0  0  0  0  0
  -19.0831   -5.1143   -1.6209 N   0  0  0  0  0  0  0  0  0  0  0  0
  -18.7311   -6.4742   -1.9853 C   0  0  0  0  0  0  0  0  0  0  0  0
  -17.7256   -6.5228   -3.0562 C   0  0  0  0  0  0  0  0  0  0  0  0
  -16.6952   -7.3868   -3.0260 N   0  0  0  0  0  0  0  0  0  0  0  0
  -15.7901   -7.4016   -4.0280 C   0  0  0  0  0  0  0  0  0  0  0  0
  -14.7328   -8.3028   -3.9769 C   0  0  0  0  0  0  0  0  0  0  0  0
  -13.8248   -8.2903   -5.0196 C   0  0  0  0  0  0  0  0  0  0  0  0
  -13.9523   -7.4159   -6.0841 C   0  0  0  0  0  0  0  0  0  0  0  0
  -14.9986   -6.5395   -6.1133 C   0  0  0  0  0  0  0  0  0  0  0  0
  -15.9283   -6.5209   -5.0890 C   0  0  0  0  0  0  0  0  0  0  0  0
  -16.9774   -5.6366   -5.1259 C   0  0  0  0  0  0  0  0  0  0  0  0
  -17.0892   -4.8431   -6.0963 O   0  0  0  0  0  0  0  0  0  0  0  0
  -17.8575   -5.6628   -4.0957 N   0  0  0  0  0  0  0  0  0  0  0  0
  -18.2469   -3.1128    0.5631 C   0  0  0  0  0  0  0  0  0  0  0  0
  -20.1137    1.2131    1.4794 H   0  0  0  0  0  0  0  0  0  0  0  0
  -19.0721    2.2264    2.5067 H   0  0  0  0  0  0  0  0  0  0  0  0
  -19.5274    2.7820    0.8777 H   0  0  0  0  0  0  0  0  0  0  0  0
  -17.1753    1.5210    1.4843 H   0  0  0  0  0  0  0  0  0  0  0  0
  -17.9224    1.5404   -0.1249 H   0  0  0  0  0  0  0  0  0  0  0  0
  -19.1639   -0.6356    0.8611 H   0  0  0  0  0  0  0  0  0  0  0  0
  -15.9189   -5.2379    2.6832 H   0  0  0  0  0  0  0  0  0  0  0  0
  -17.7096   -6.3011    1.3725 H   0  0  0  0  0  0  0  0  0  0  0  0
  -20.4307   -4.4129   -0.1766 H   0  0  0  0  0  0  0  0  0  0  0  0
  -19.7908   -6.0343    0.1175 H   0  0  0  0  0  0  0  0  0  0  0  0
  -19.8191   -4.7895   -2.2316 H   0  0  0  0  0  0  0  0  0  0  0  0
  -19.6327   -6.9644   -2.3526 H   0  0  0  0  0  0  0  0  0  0  0  0
  -18.3329   -6.9813   -1.1065 H   0  0  0  0  0  0  0  0  0  0  0  0
  -14.6233   -8.9960   -3.1429 H   0  0  0  0  0  0  0  0  0  0  0  0
  -12.9870   -8.9873   -5.0024 H   0  0  0  0  0  0  0  0  0  0  0  0
  -13.2226   -7.4267   -6.8937 H   0  0  0  0  0  0  0  0  0  0  0  0
  -15.1023   -5.8490   -6.9503 H   0  0  0  0  0  0  0  0  0  0  0  0
  -18.6371   -5.0207   -4.1026 H   0  0  0  0  0  0  0  0  0  0  0  0
  -18.9114   -2.4972   -0.0431 H   0  0  0  0  0  0  0  0  0  0  0  0
  -14.6208   -1.6300    4.1939 O   0  0  0  0  0  0  0  0  0  0  0  0
  -13.6451   -2.1521    3.4160 C   0  0  0  0  0  0  0  0  0  0  0  0
  -14.2340   -2.9062    2.4103 C   0  0  0  0  0  0  0  0  0  0  0  0
  -15.6075   -2.7951    2.6432 C   0  0  0  0  0  0  0  0  0  0  0  0
  -15.7863   -2.0094    3.7380 N   0  0  0  0  0  0  0  0  0  0  0  0
  -12.1719   -1.9232    3.6446 C   0  0  0  0  0  0  0  0  0  0  0  0
  -13.7354   -3.4534    1.6270 H   0  0  0  0  0  0  0  0  0  0  0  0
  -11.8442   -1.0367    3.1036 H   0  0  0  0  0  0  0  0  0  0  0  0
  -11.9796   -1.7740    4.7069 H   0  0  0  0  0  0  0  0  0  0  0  0
  -11.5937   -2.7812    3.3023 H   0  0  0  0  0  0  0  0  0  0  0  0
  1  2  1  0
  2  3  1  0
  3  4  1  0
  4  5  2  0
  4  6  1  0
  6  7  2  0
  7  8  1  0
  8  9  2  0
  9 10  1  0
 10 11  1  0
 11 12  1  0
 12 13  1  0
 13 14  1  0
 14 15  2  0
 15 16  1  0
 16 17  2  0
 17 18  1  0
 18 19  2  0
 19 20  1  0
 20 21  2  0
 21 22  1  0
 22 23  2  0
 22 24  1  0
 10 25  2  0
  6 25  1  0
 14 24  1  0
 16 21  1  0
  1 26  1  0
  1 27  1  0
  1 28  1  0
  2 29  1  0
  2 30  1  0
  3 31  1  0
  8 32  1  0
  9 33  1  0
 11 34  1  0
 11 35  1  0
 12 36  1  0
 13 37  1  0
 13 38  1  0
 17 39  1  0
 18 40  1  0
 19 41  1  0
 20 42  1  0
 24 43  1  0
 25 44  1  0
 45 46  1  0
 45 49  1  0
 46 47  2  0
 46 50  1  0
 47 48  1  0
 47 51  1  0
 48 49  2  0
 50 52  1  0
 50 53  1  0
 50 54  1  0
  7 48  1  0
M  END
>  <CHROM.1>  (22) 
-145.78732048,-150.50072502,-100.04386824,103.62672716,-153.27732802,137.76008317
-17.09621673,-4.41790035,-1.64771840,-2.75627770,-1.30836700,2.76180462

>  <Name>  (22) 
design_4

>  <RI>  (22) 
23619200.000000

>  <Rbt.Current_Directory>  (22) 
/pylon5/mc5pksp/smaltr/gateway_workdirs/PROCESS_93251df5-8da2-4fa9-b874-71853b29d1ad

>  <Rbt.Executable>  (22) 
rbdock ($Id: //depot/dev/client3/rdock/2013.1/src/exe/rbdock.cxx#4 $)

>  <Rbt.Library>  (22) 
libRbt.so (2013.1, Build901 2013/11/27)

>  <Rbt.Parameter_File>  (22) 
/home/smaltr/software/rDock_2013.1_src//data/scripts/dock.prm

>  <Rbt.Receptor>  (22) 
/pylon5/mc5pksp/smaltr/gateway_workdirs/PROCESS_93251df5-8da2-4fa9-b874-71853b29d1ad/output/SnD-Target-Sep02/cavity/pocket_docking.prm

>  <SCORE>  (22) 
-19.110900

>  <SCORE.INTER>  (22) 
-20.563400

>  <SCORE.INTER.CONST>  (22) 
1

>  <SCORE.INTER.POLAR>  (22) 
-1.616940

>  <SCORE.INTER.REPUL>  (22) 
0

>  <SCORE.INTER.ROT>  (22) 
6

>  <SCORE.INTER.VDW>  (22) 
-26.465800

>  <SCORE.INTER.norm>  (22) 
-0.822537

>  <SCORE.INTRA>  (22) 
1.452490

>  <SCORE.INTRA.DIHEDRAL>  (22) 
6.095080

>  <SCORE.INTRA.DIHEDRAL.0>  (22) 
2.644290

>  <SCORE.INTRA.POLAR>  (22) 
0.047540

>  <SCORE.INTRA.POLAR.0>  (22) 
-0.047540

>  <SCORE.INTRA.REPUL>  (22) 
0

>  <SCORE.INTRA.REPUL.0>  (22) 
0

>  <SCORE.INTRA.VDW>  (22) 
-1.756680

>  <SCORE.INTRA.VDW.0>  (22) 
0.178872

>  <SCORE.INTRA.norm>  (22) 
0.058100

>  <SCORE.RESTR>  (22) 
0

>  <SCORE.RESTR.CAVITY>  (22) 
0

>  <SCORE.RESTR.norm>  (22) 
0

>  <SCORE.SYSTEM>  (22) 
0

>  <SCORE.SYSTEM.CONST>  (22) 
0

>  <SCORE.SYSTEM.DIHEDRAL>  (22) 
0

>  <SCORE.SYSTEM.norm>  (22) 
0

>  <SCORE.heavy>  (22) 
25

>  <SCORE.norm>  (22) 
-0.764437

>  <SMILES>  (22) 
CCNC(=O)c1cccc(CNCc2nc3ccccc3c(=O)[nH]2)c1

>  <Cycle>  (22) 
228

>  <MolWeight>  (22) 
336.395000

>  <LogP>  (22) 
1.962600

>  <QED>  (22) 
0.642134

>  <SAS>  (22) 
1.3183429949785888

$$$$
design_4
     RDKit          3D

 54 57  0  0  0  0  0  0  0  0999 V2000
  -19.2766    1.9112    1.4835 C   0  0  0  0  0  0  0  0  0  0  0  0
  -18.0586    1.2360    0.9128 C   0  0  0  0  0  0  0  0  0  0  0  0
  -18.2495   -0.2236    0.9809 N   0  0  0  0  0  0  0  0  0  0  0  0
  -17.1222   -1.0221    1.2172 C   0  0  0  0  0  0  0  0  0  0  0  0
  -16.0001   -0.4859    1.3623 O   0  0  0  0  0  0  0  0  0  0  0  0
  -17.2375   -2.4712    1.2968 C   0  0  0  0  0  0  0  0  0  0  0  0
  -16.4010   -3.2509    2.0606 C   0  0  0  0  0  0  0  0  0  0  0  0
  -16.5809   -4.6181    2.0785 C   0  0  0  0  0  0  0  0  0  0  0  0
  -17.5910   -5.2181    1.3392 C   0  0  0  0  0  0  0  0  0  0  0  0
  -18.4451   -4.4662    0.5647 C   0  0  0  0  0  0  0  0  0  0  0  0
  -19.5404   -5.0378   -0.2464 C   0  0  0  0  0  0  0  0  0  0  0  0
  -19.0831   -5.1143   -1.6209 N   0  0  0  0  0  0  0  0  0  0  0  0
  -18.7311   -6.4742   -1.9853 C   0  0  0  0  0  0  0  0  0  0  0  0
  -17.7256   -6.5228   -3.0562 C   0  0  0  0  0  0  0  0  0  0  0  0
  -16.6952   -7.3868   -3.0260 N   0  0  0  0  0  0  0  0  0  0  0  0
  -15.7901   -7.4016   -4.0280 C   0  0  0  0  0  0  0  0  0  0  0  0
  -14.7328   -8.3028   -3.9769 C   0  0  0  0  0  0  0  0  0  0  0  0
  -13.8248   -8.2903   -5.0196 C   0  0  0  0  0  0  0  0  0  0  0  0
  -13.9523   -7.4159   -6.0841 C   0  0  0  0  0  0  0  0  0  0  0  0
  -14.9986   -6.5395   -6.1133 C   0  0  0  0  0  0  0  0  0  0  0  0
  -15.9283   -6.5209   -5.0890 C   0  0  0  0  0  0  0  0  0  0  0  0
  -16.9774   -5.6366   -5.1259 C   0  0  0  0  0  0  0  0  0  0  0  0
  -17.0892   -4.8431   -6.0963 O   0  0  0  0  0  0  0  0  0  0  0  0
  -17.8575   -5.6628   -4.0957 N   0  0  0  0  0  0  0  0  0  0  0  0
  -18.2469   -3.1128    0.5631 C   0  0  0  0  0  0  0  0  0  0  0  0
  -20.1137    1.2131    1.4794 H   0  0  0  0  0  0  0  0  0  0  0  0
  -19.0721    2.2264    2.5067 H   0  0  0  0  0  0  0  0  0  0  0  0
  -19.5274    2.7820    0.8777 H   0  0  0  0  0  0  0  0  0  0  0  0
  -17.1753    1.5210    1.4843 H   0  0  0  0  0  0  0  0  0  0  0  0
  -17.9224    1.5404   -0.1249 H   0  0  0  0  0  0  0  0  0  0  0  0
  -19.1639   -0.6356    0.8611 H   0  0  0  0  0  0  0  0  0  0  0  0
  -15.6037   -2.7929    2.6460 H   0  0  0  0  0  0  0  0  0  0  0  0
  -15.9189   -5.2379    2.6832 H   0  0  0  0  0  0  0  0  0  0  0  0
  -20.4307   -4.4129   -0.1766 H   0  0  0  0  0  0  0  0  0  0  0  0
  -19.7908   -6.0343    0.1175 H   0  0  0  0  0  0  0  0  0  0  0  0
  -19.8191   -4.7895   -2.2316 H   0  0  0  0  0  0  0  0  0  0  0  0
  -19.6327   -6.9644   -2.3526 H   0  0  0  0  0  0  0  0  0  0  0  0
  -18.3329   -6.9813   -1.1065 H   0  0  0  0  0  0  0  0  0  0  0  0
  -14.6233   -8.9960   -3.1429 H   0  0  0  0  0  0  0  0  0  0  0  0
  -12.9870   -8.9873   -5.0024 H   0  0  0  0  0  0  0  0  0  0  0  0
  -13.2226   -7.4267   -6.8937 H   0  0  0  0  0  0  0  0  0  0  0  0
  -15.1023   -5.8490   -6.9503 H   0  0  0  0  0  0  0  0  0  0  0  0
  -18.6371   -5.0207   -4.1026 H   0  0  0  0  0  0  0  0  0  0  0  0
  -18.9114   -2.4972   -0.0431 H   0  0  0  0  0  0  0  0  0  0  0  0
  -18.6735   -8.2454    1.4424 O   0  0  0  0  0  0  0  0  0  0  0  0
  -17.3396   -8.4689    1.4305 C   0  0  0  0  0  0  0  0  0  0  0  0
  -16.6843   -7.2461    1.3854 C   0  0  0  0  0  0  0  0  0  0  0  0
  -17.7090   -6.2960    1.3723 C   0  0  0  0  0  0  0  0  0  0  0  0
  -18.8962   -6.9572    1.4082 N   0  0  0  0  0  0  0  0  0  0  0  0
  -16.7146   -9.8413    1.4626 C   0  0  0  0  0  0  0  0  0  0  0  0
  -15.6202   -7.0755    1.3650 H   0  0  0  0  0  0  0  0  0  0  0  0
  -16.5491  -10.1514    2.4933 H   0  0  0  0  0  0  0  0  0  0  0  0
  -17.3768  -10.5623    0.9838 H   0  0  0  0  0  0  0  0  0  0  0  0
  -15.7607   -9.8397    0.9355 H   0  0  0  0  0  0  0  0  0  0  0  0
  1  2  1  0
  2  3  1  0
  3  4  1  0
  4  5  2  0
  4  6  1  0
  6  7  2  0
  7  8  1  0
  8  9  2  0
  9 10  1  0
 10 11  1  0
 11 12  1  0
 12 13  1  0
 13 14  1  0
 14 15  2  0
 15 16  1  0
 16 17  2  0
 17 18  1  0
 18 19  2  0
 19 20  1  0
 20 21  2  0
 21 22  1  0
 22 23  2  0
 22 24  1  0
 10 25  2  0
  6 25  1  0
 14 24  1  0
 16 21  1  0
  1 26  1  0
  1 27  1  0
  1 28  1  0
  2 29  1  0
  2 30  1  0
  3 31  1  0
  7 32  1  0
  8 33  1  0
 11 34  1  0
 11 35  1  0
 12 36  1  0
 13 37  1  0
 13 38  1  0
 17 39  1  0
 18 40  1  0
 19 41  1  0
 20 42  1  0
 24 43  1  0
 25 44  1  0
 45 46  1  0
 45 49  1  0
 46 47  2  0
 46 50  1  0
 47 48  1  0
 47 51  1  0
 48 49  2  0
 50 52  1  0
 50 53  1  0
 50 54  1  0
  9 48  1  0
M  END
>  <CHROM.1>  (23) 
-145.78732048,-150.50072502,-100.04386824,103.62672716,-153.27732802,137.76008317
-17.09621673,-4.41790035,-1.64771840,-2.75627770,-1.30836700,2.76180462

>  <Name>  (23) 
design_4

>  <RI>  (23) 
23619200.000000

>  <Rbt.Current_Directory>  (23) 
/pylon5/mc5pksp/smaltr/gateway_workdirs/PROCESS_93251df5-8da2-4fa9-b874-71853b29d1ad

>  <Rbt.Executable>  (23) 
rbdock ($Id: //depot/dev/client3/rdock/2013.1/src/exe/rbdock.cxx#4 $)

>  <Rbt.Library>  (23) 
libRbt.so (2013.1, Build901 2013/11/27)

>  <Rbt.Parameter_File>  (23) 
/home/smaltr/software/rDock_2013.1_src//data/scripts/dock.prm

>  <Rbt.Receptor>  (23) 
/pylon5/mc5pksp/smaltr/gateway_workdirs/PROCESS_93251df5-8da2-4fa9-b874-71853b29d1ad/output/SnD-Target-Sep02/cavity/pocket_docking.prm

>  <SCORE>  (23) 
-19.110900

>  <SCORE.INTER>  (23) 
-20.563400

>  <SCORE.INTER.CONST>  (23) 
1

>  <SCORE.INTER.POLAR>  (23) 
-1.616940

>  <SCORE.INTER.REPUL>  (23) 
0

>  <SCORE.INTER.ROT>  (23) 
6

>  <SCORE.INTER.VDW>  (23) 
-26.465800

>  <SCORE.INTER.norm>  (23) 
-0.822537

>  <SCORE.INTRA>  (23) 
1.452490

>  <SCORE.INTRA.DIHEDRAL>  (23) 
6.095080

>  <SCORE.INTRA.DIHEDRAL.0>  (23) 
2.644290

>  <SCORE.INTRA.POLAR>  (23) 
0.047540

>  <SCORE.INTRA.POLAR.0>  (23) 
-0.047540

>  <SCORE.INTRA.REPUL>  (23) 
0

>  <SCORE.INTRA.REPUL.0>  (23) 
0

>  <SCORE.INTRA.VDW>  (23) 
-1.756680

>  <SCORE.INTRA.VDW.0>  (23) 
0.178872

>  <SCORE.INTRA.norm>  (23) 
0.058100

>  <SCORE.RESTR>  (23) 
0

>  <SCORE.RESTR.CAVITY>  (23) 
0

>  <SCORE.RESTR.norm>  (23) 
0

>  <SCORE.SYSTEM>  (23) 
0

>  <SCORE.SYSTEM.CONST>  (23) 
0

>  <SCORE.SYSTEM.DIHEDRAL>  (23) 
0

>  <SCORE.SYSTEM.norm>  (23) 
0

>  <SCORE.heavy>  (23) 
25

>  <SCORE.norm>  (23) 
-0.764437

>  <SMILES>  (23) 
CCNC(=O)c1cccc(CNCc2nc3ccccc3c(=O)[nH]2)c1

>  <Cycle>  (23) 
228

>  <MolWeight>  (23) 
336.395000

>  <LogP>  (23) 
1.962600

>  <QED>  (23) 
0.642134

>  <SAS>  (23) 
1.3183429949785888

$$$$
design_4
     RDKit          3D

 54 57  0  0  0  0  0  0  0  0999 V2000
  -19.2766    1.9112    1.4835 C   0  0  0  0  0  0  0  0  0  0  0  0
  -18.0586    1.2360    0.9128 C   0  0  0  0  0  0  0  0  0  0  0  0
  -18.2495   -0.2236    0.9809 N   0  0  0  0  0  0  0  0  0  0  0  0
  -17.1222   -1.0221    1.2172 C   0  0  0  0  0  0  0  0  0  0  0  0
  -16.0001   -0.4859    1.3623 O   0  0  0  0  0  0  0  0  0  0  0  0
  -17.2375   -2.4712    1.2968 C   0  0  0  0  0  0  0  0  0  0  0  0
  -16.4010   -3.2509    2.0606 C   0  0  0  0  0  0  0  0  0  0  0  0
  -16.5809   -4.6181    2.0785 C   0  0  0  0  0  0  0  0  0  0  0  0
  -17.5910   -5.2181    1.3392 C   0  0  0  0  0  0  0  0  0  0  0  0
  -18.4451   -4.4662    0.5647 C   0  0  0  0  0  0  0  0  0  0  0  0
  -19.5404   -5.0378   -0.2464 C   0  0  0  0  0  0  0  0  0  0  0  0
  -19.0831   -5.1143   -1.6209 N   0  0  0  0  0  0  0  0  0  0  0  0
  -18.7311   -6.4742   -1.9853 C   0  0  0  0  0  0  0  0  0  0  0  0
  -17.7256   -6.5228   -3.0562 C   0  0  0  0  0  0  0  0  0  0  0  0
  -16.6952   -7.3868   -3.0260 N   0  0  0  0  0  0  0  0  0  0  0  0
  -15.7901   -7.4016   -4.0280 C   0  0  0  0  0  0  0  0  0  0  0  0
  -14.7328   -8.3028   -3.9769 C   0  0  0  0  0  0  0  0  0  0  0  0
  -13.8248   -8.2903   -5.0196 C   0  0  0  0  0  0  0  0  0  0  0  0
  -13.9523   -7.4159   -6.0841 C   0  0  0  0  0  0  0  0  0  0  0  0
  -14.9986   -6.5395   -6.1133 C   0  0  0  0  0  0  0  0  0  0  0  0
  -15.9283   -6.5209   -5.0890 C   0  0  0  0  0  0  0  0  0  0  0  0
  -16.9774   -5.6366   -5.1259 C   0  0  0  0  0  0  0  0  0  0  0  0
  -17.0892   -4.8431   -6.0963 O   0  0  0  0  0  0  0  0  0  0  0  0
  -17.8575   -5.6628   -4.0957 N   0  0  0  0  0  0  0  0  0  0  0  0
  -18.2469   -3.1128    0.5631 C   0  0  0  0  0  0  0  0  0  0  0  0
  -20.1137    1.2131    1.4794 H   0  0  0  0  0  0  0  0  0  0  0  0
  -19.0721    2.2264    2.5067 H   0  0  0  0  0  0  0  0  0  0  0  0
  -19.5274    2.7820    0.8777 H   0  0  0  0  0  0  0  0  0  0  0  0
  -17.1753    1.5210    1.4843 H   0  0  0  0  0  0  0  0  0  0  0  0
  -17.9224    1.5404   -0.1249 H   0  0  0  0  0  0  0  0  0  0  0  0
  -19.1639   -0.6356    0.8611 H   0  0  0  0  0  0  0  0  0  0  0  0
  -15.6037   -2.7929    2.6460 H   0  0  0  0  0  0  0  0  0  0  0  0
  -15.9189   -5.2379    2.6832 H   0  0  0  0  0  0  0  0  0  0  0  0
  -17.7096   -6.3011    1.3725 H   0  0  0  0  0  0  0  0  0  0  0  0
  -20.4307   -4.4129   -0.1766 H   0  0  0  0  0  0  0  0  0  0  0  0
  -19.7908   -6.0343    0.1175 H   0  0  0  0  0  0  0  0  0  0  0  0
  -19.8191   -4.7895   -2.2316 H   0  0  0  0  0  0  0  0  0  0  0  0
  -19.6327   -6.9644   -2.3526 H   0  0  0  0  0  0  0  0  0  0  0  0
  -18.3329   -6.9813   -1.1065 H   0  0  0  0  0  0  0  0  0  0  0  0
  -14.6233   -8.9960   -3.1429 H   0  0  0  0  0  0  0  0  0  0  0  0
  -12.9870   -8.9873   -5.0024 H   0  0  0  0  0  0  0  0  0  0  0  0
  -13.2226   -7.4267   -6.8937 H   0  0  0  0  0  0  0  0  0  0  0  0
  -15.1023   -5.8490   -6.9503 H   0  0  0  0  0  0  0  0  0  0  0  0
  -18.6371   -5.0207   -4.1026 H   0  0  0  0  0  0  0  0  0  0  0  0
  -20.7432   -1.7209   -0.9126 O   0  0  0  0  0  0  0  0  0  0  0  0
  -19.7249   -0.9986   -1.4332 C   0  0  0  0  0  0  0  0  0  0  0  0
  -18.5311   -1.4651   -0.9002 C   0  0  0  0  0  0  0  0  0  0  0  0
  -18.9083   -2.5001   -0.0402 C   0  0  0  0  0  0  0  0  0  0  0  0
  -20.2621   -2.6127   -0.0860 N   0  0  0  0  0  0  0  0  0  0  0  0
  -19.9075    0.1208   -2.4274 C   0  0  0  0  0  0  0  0  0  0  0  0
  -17.5373   -1.1036   -1.1084 H   0  0  0  0  0  0  0  0  0  0  0  0
  -19.8741   -0.2730   -3.4422 H   0  0  0  0  0  0  0  0  0  0  0  0
  -20.8728    0.6019   -2.2720 H   0  0  0  0  0  0  0  0  0  0  0  0
  -19.1224    0.8677   -2.3112 H   0  0  0  0  0  0  0  0  0  0  0  0
  1  2  1  0
  2  3  1  0
  3  4  1  0
  4  5  2  0
  4  6  1  0
  6  7  2  0
  7  8  1  0
  8  9  2  0
  9 10  1  0
 10 11  1  0
 11 12  1  0
 12 13  1  0
 13 14  1  0
 14 15  2  0
 15 16  1  0
 16 17  2  0
 17 18  1  0
 18 19  2  0
 19 20  1  0
 20 21  2  0
 21 22  1  0
 22 23  2  0
 22 24  1  0
 10 25  2  0
  6 25  1  0
 14 24  1  0
 16 21  1  0
  1 26  1  0
  1 27  1  0
  1 28  1  0
  2 29  1  0
  2 30  1  0
  3 31  1  0
  7 32  1  0
  8 33  1  0
  9 34  1  0
 11 35  1  0
 11 36  1  0
 12 37  1  0
 13 38  1  0
 13 39  1  0
 17 40  1  0
 18 41  1  0
 19 42  1  0
 20 43  1  0
 24 44  1  0
 45 46  1  0
 45 49  1  0
 46 47  2  0
 46 50  1  0
 47 48  1  0
 47 51  1  0
 48 49  2  0
 50 52  1  0
 50 53  1  0
 50 54  1  0
 25 48  1  0
M  END
>  <CHROM.1>  (24) 
-145.78732048,-150.50072502,-100.04386824,103.62672716,-153.27732802,137.76008317
-17.09621673,-4.41790035,-1.64771840,-2.75627770,-1.30836700,2.76180462

>  <Name>  (24) 
design_4

>  <RI>  (24) 
23619200.000000

>  <Rbt.Current_Directory>  (24) 
/pylon5/mc5pksp/smaltr/gateway_workdirs/PROCESS_93251df5-8da2-4fa9-b874-71853b29d1ad

>  <Rbt.Executable>  (24) 
rbdock ($Id: //depot/dev/client3/rdock/2013.1/src/exe/rbdock.cxx#4 $)

>  <Rbt.Library>  (24) 
libRbt.so (2013.1, Build901 2013/11/27)

>  <Rbt.Parameter_File>  (24) 
/home/smaltr/software/rDock_2013.1_src//data/scripts/dock.prm

>  <Rbt.Receptor>  (24) 
/pylon5/mc5pksp/smaltr/gateway_workdirs/PROCESS_93251df5-8da2-4fa9-b874-71853b29d1ad/output/SnD-Target-Sep02/cavity/pocket_docking.prm

>  <SCORE>  (24) 
-19.110900

>  <SCORE.INTER>  (24) 
-20.563400

>  <SCORE.INTER.CONST>  (24) 
1

>  <SCORE.INTER.POLAR>  (24) 
-1.616940

>  <SCORE.INTER.REPUL>  (24) 
0

>  <SCORE.INTER.ROT>  (24) 
6

>  <SCORE.INTER.VDW>  (24) 
-26.465800

>  <SCORE.INTER.norm>  (24) 
-0.822537

>  <SCORE.INTRA>  (24) 
1.452490

>  <SCORE.INTRA.DIHEDRAL>  (24) 
6.095080

>  <SCORE.INTRA.DIHEDRAL.0>  (24) 
2.644290

>  <SCORE.INTRA.POLAR>  (24) 
0.047540

>  <SCORE.INTRA.POLAR.0>  (24) 
-0.047540

>  <SCORE.INTRA.REPUL>  (24) 
0

>  <SCORE.INTRA.REPUL.0>  (24) 
0

>  <SCORE.INTRA.VDW>  (24) 
-1.756680

>  <SCORE.INTRA.VDW.0>  (24) 
0.178872

>  <SCORE.INTRA.norm>  (24) 
0.058100

>  <SCORE.RESTR>  (24) 
0

>  <SCORE.RESTR.CAVITY>  (24) 
0

>  <SCORE.RESTR.norm>  (24) 
0

>  <SCORE.SYSTEM>  (24) 
0

>  <SCORE.SYSTEM.CONST>  (24) 
0

>  <SCORE.SYSTEM.DIHEDRAL>  (24) 
0

>  <SCORE.SYSTEM.norm>  (24) 
0

>  <SCORE.heavy>  (24) 
25

>  <SCORE.norm>  (24) 
-0.764437

>  <SMILES>  (24) 
CCNC(=O)c1cccc(CNCc2nc3ccccc3c(=O)[nH]2)c1

>  <Cycle>  (24) 
228

>  <MolWeight>  (24) 
336.395000

>  <LogP>  (24) 
1.962600

>  <QED>  (24) 
0.642134

>  <SAS>  (24) 
1.3183429949785888

$$$$
design_4
     RDKit          3D

 54 57  0  0  0  0  0  0  0  0999 V2000
  -19.2766    1.9112    1.4835 C   0  0  0  0  0  0  0  0  0  0  0  0
  -18.0586    1.2360    0.9128 C   0  0  0  0  0  0  0  0  0  0  0  0
  -18.2495   -0.2236    0.9809 N   0  0  0  0  0  0  0  0  0  0  0  0
  -17.1222   -1.0221    1.2172 C   0  0  0  0  0  0  0  0  0  0  0  0
  -16.0001   -0.4859    1.3623 O   0  0  0  0  0  0  0  0  0  0  0  0
  -17.2375   -2.4712    1.2968 C   0  0  0  0  0  0  0  0  0  0  0  0
  -16.4010   -3.2509    2.0606 C   0  0  0  0  0  0  0  0  0  0  0  0
  -16.5809   -4.6181    2.0785 C   0  0  0  0  0  0  0  0  0  0  0  0
  -17.5910   -5.2181    1.3392 C   0  0  0  0  0  0  0  0  0  0  0  0
  -18.4451   -4.4662    0.5647 C   0  0  0  0  0  0  0  0  0  0  0  0
  -19.5404   -5.0378   -0.2464 C   0  0  0  0  0  0  0  0  0  0  0  0
  -19.0831   -5.1143   -1.6209 N   0  0  0  0  0  0  0  0  0  0  0  0
  -18.7311   -6.4742   -1.9853 C   0  0  0  0  0  0  0  0  0  0  0  0
  -17.7256   -6.5228   -3.0562 C   0  0  0  0  0  0  0  0  0  0  0  0
  -16.6952   -7.3868   -3.0260 N   0  0  0  0  0  0  0  0  0  0  0  0
  -15.7901   -7.4016   -4.0280 C   0  0  0  0  0  0  0  0  0  0  0  0
  -14.7328   -8.3028   -3.9769 C   0  0  0  0  0  0  0  0  0  0  0  0
  -13.8248   -8.2903   -5.0196 C   0  0  0  0  0  0  0  0  0  0  0  0
  -13.9523   -7.4159   -6.0841 C   0  0  0  0  0  0  0  0  0  0  0  0
  -14.9986   -6.5395   -6.1133 C   0  0  0  0  0  0  0  0  0  0  0  0
  -15.9283   -6.5209   -5.0890 C   0  0  0  0  0  0  0  0  0  0  0  0
  -16.9774   -5.6366   -5.1259 C   0  0  0  0  0  0  0  0  0  0  0  0
  -17.0892   -4.8431   -6.0963 O   0  0  0  0  0  0  0  0  0  0  0  0
  -17.8575   -5.6628   -4.0957 N   0  0  0  0  0  0  0  0  0  0  0  0
  -18.2469   -3.1128    0.5631 C   0  0  0  0  0  0  0  0  0  0  0  0
  -20.1137    1.2131    1.4794 H   0  0  0  0  0  0  0  0  0  0  0  0
  -19.0721    2.2264    2.5067 H   0  0  0  0  0  0  0  0  0  0  0  0
  -19.5274    2.7820    0.8777 H   0  0  0  0  0  0  0  0  0  0  0  0
  -17.1753    1.5210    1.4843 H   0  0  0  0  0  0  0  0  0  0  0  0
  -17.9224    1.5404   -0.1249 H   0  0  0  0  0  0  0  0  0  0  0  0
  -19.1639   -0.6356    0.8611 H   0  0  0  0  0  0  0  0  0  0  0  0
  -15.6037   -2.7929    2.6460 H   0  0  0  0  0  0  0  0  0  0  0  0
  -15.9189   -5.2379    2.6832 H   0  0  0  0  0  0  0  0  0  0  0  0
  -17.7096   -6.3011    1.3725 H   0  0  0  0  0  0  0  0  0  0  0  0
  -20.4307   -4.4129   -0.1766 H   0  0  0  0  0  0  0  0  0  0  0  0
  -19.7908   -6.0343    0.1175 H   0  0  0  0  0  0  0  0  0  0  0  0
  -19.8191   -4.7895   -2.2316 H   0  0  0  0  0  0  0  0  0  0  0  0
  -19.6327   -6.9644   -2.3526 H   0  0  0  0  0  0  0  0  0  0  0  0
  -18.3329   -6.9813   -1.1065 H   0  0  0  0  0  0  0  0  0  0  0  0
  -14.6233   -8.9960   -3.1429 H   0  0  0  0  0  0  0  0  0  0  0  0
  -13.2226   -7.4267   -6.8937 H   0  0  0  0  0  0  0  0  0  0  0  0
  -15.1023   -5.8490   -6.9503 H   0  0  0  0  0  0  0  0  0  0  0  0
  -18.6371   -5.0207   -4.1026 H   0  0  0  0  0  0  0  0  0  0  0  0
  -18.9114   -2.4972   -0.0431 H   0  0  0  0  0  0  0  0  0  0  0  0
  -11.8662  -10.8208   -4.6917 O   0  0  0  0  0  0  0  0  0  0  0  0
  -11.0000   -9.9118   -5.1948 C   0  0  0  0  0  0  0  0  0  0  0  0
  -11.6801   -8.7208   -5.4090 C   0  0  0  0  0  0  0  0  0  0  0  0
  -12.9910   -8.9840   -5.0025 C   0  0  0  0  0  0  0  0  0  0  0  0
  -13.0483  -10.2734   -4.5761 N   0  0  0  0  0  0  0  0  0  0  0  0
   -9.5426  -10.1940   -5.4616 C   0  0  0  0  0  0  0  0  0  0  0  0
  -11.2787   -7.8010   -5.8023 H   0  0  0  0  0  0  0  0  0  0  0  0
   -8.9503   -9.9633   -4.5773 H   0  0  0  0  0  0  0  0  0  0  0  0
   -9.4070  -11.2472   -5.7067 H   0  0  0  0  0  0  0  0  0  0  0  0
   -9.1828   -9.5923   -6.2960 H   0  0  0  0  0  0  0  0  0  0  0  0
  1  2  1  0
  2  3  1  0
  3  4  1  0
  4  5  2  0
  4  6  1  0
  6  7  2  0
  7  8  1  0
  8  9  2  0
  9 10  1  0
 10 11  1  0
 11 12  1  0
 12 13  1  0
 13 14  1  0
 14 15  2  0
 15 16  1  0
 16 17  2  0
 17 18  1  0
 18 19  2  0
 19 20  1  0
 20 21  2  0
 21 22  1  0
 22 23  2  0
 22 24  1  0
 10 25  2  0
  6 25  1  0
 14 24  1  0
 16 21  1  0
  1 26  1  0
  1 27  1  0
  1 28  1  0
  2 29  1  0
  2 30  1  0
  3 31  1  0
  7 32  1  0
  8 33  1  0
  9 34  1  0
 11 35  1  0
 11 36  1  0
 12 37  1  0
 13 38  1  0
 13 39  1  0
 17 40  1  0
 19 41  1  0
 20 42  1  0
 24 43  1  0
 25 44  1  0
 45 46  1  0
 45 49  1  0
 46 47  2  0
 46 50  1  0
 47 48  1  0
 47 51  1  0
 48 49  2  0
 50 52  1  0
 50 53  1  0
 50 54  1  0
 18 48  1  0
M  END
>  <CHROM.1>  (25) 
-145.78732048,-150.50072502,-100.04386824,103.62672716,-153.27732802,137.76008317
-17.09621673,-4.41790035,-1.64771840,-2.75627770,-1.30836700,2.76180462

>  <Name>  (25) 
design_4

>  <RI>  (25) 
23619200.000000

>  <Rbt.Current_Directory>  (25) 
/pylon5/mc5pksp/smaltr/gateway_workdirs/PROCESS_93251df5-8da2-4fa9-b874-71853b29d1ad

>  <Rbt.Executable>  (25) 
rbdock ($Id: //depot/dev/client3/rdock/2013.1/src/exe/rbdock.cxx#4 $)

>  <Rbt.Library>  (25) 
libRbt.so (2013.1, Build901 2013/11/27)

>  <Rbt.Parameter_File>  (25) 
/home/smaltr/software/rDock_2013.1_src//data/scripts/dock.prm

>  <Rbt.Receptor>  (25) 
/pylon5/mc5pksp/smaltr/gateway_workdirs/PROCESS_93251df5-8da2-4fa9-b874-71853b29d1ad/output/SnD-Target-Sep02/cavity/pocket_docking.prm

>  <SCORE>  (25) 
-19.110900

>  <SCORE.INTER>  (25) 
-20.563400

>  <SCORE.INTER.CONST>  (25) 
1

>  <SCORE.INTER.POLAR>  (25) 
-1.616940

>  <SCORE.INTER.REPUL>  (25) 
0

>  <SCORE.INTER.ROT>  (25) 
6

>  <SCORE.INTER.VDW>  (25) 
-26.465800

>  <SCORE.INTER.norm>  (25) 
-0.822537

>  <SCORE.INTRA>  (25) 
1.452490

>  <SCORE.INTRA.DIHEDRAL>  (25) 
6.095080

>  <SCORE.INTRA.DIHEDRAL.0>  (25) 
2.644290

>  <SCORE.INTRA.POLAR>  (25) 
0.047540

>  <SCORE.INTRA.POLAR.0>  (25) 
-0.047540

>  <SCORE.INTRA.REPUL>  (25) 
0

>  <SCORE.INTRA.REPUL.0>  (25) 
0

>  <SCORE.INTRA.VDW>  (25) 
-1.756680

>  <SCORE.INTRA.VDW.0>  (25) 
0.178872

>  <SCORE.INTRA.norm>  (25) 
0.058100

>  <SCORE.RESTR>  (25) 
0

>  <SCORE.RESTR.CAVITY>  (25) 
0

>  <SCORE.RESTR.norm>  (25) 
0

>  <SCORE.SYSTEM>  (25) 
0

>  <SCORE.SYSTEM.CONST>  (25) 
0

>  <SCORE.SYSTEM.DIHEDRAL>  (25) 
0

>  <SCORE.SYSTEM.norm>  (25) 
0

>  <SCORE.heavy>  (25) 
25

>  <SCORE.norm>  (25) 
-0.764437

>  <SMILES>  (25) 
CCNC(=O)c1cccc(CNCc2nc3ccccc3c(=O)[nH]2)c1

>  <Cycle>  (25) 
228

>  <MolWeight>  (25) 
336.395000

>  <LogP>  (25) 
1.962600

>  <QED>  (25) 
0.642134

>  <SAS>  (25) 
1.3183429949785888

$$$$
design_4
     RDKit          3D

 54 57  0  0  0  0  0  0  0  0999 V2000
  -19.2766    1.9112    1.4835 C   0  0  0  0  0  0  0  0  0  0  0  0
  -18.0586    1.2360    0.9128 C   0  0  0  0  0  0  0  0  0  0  0  0
  -18.2495   -0.2236    0.9809 N   0  0  0  0  0  0  0  0  0  0  0  0
  -17.1222   -1.0221    1.2172 C   0  0  0  0  0  0  0  0  0  0  0  0
  -16.0001   -0.4859    1.3623 O   0  0  0  0  0  0  0  0  0  0  0  0
  -17.2375   -2.4712    1.2968 C   0  0  0  0  0  0  0  0  0  0  0  0
  -16.4010   -3.2509    2.0606 C   0  0  0  0  0  0  0  0  0  0  0  0
  -16.5809   -4.6181    2.0785 C   0  0  0  0  0  0  0  0  0  0  0  0
  -17.5910   -5.2181    1.3392 C   0  0  0  0  0  0  0  0  0  0  0  0
  -18.4451   -4.4662    0.5647 C   0  0  0  0  0  0  0  0  0  0  0  0
  -19.5404   -5.0378   -0.2464 C   0  0  0  0  0  0  0  0  0  0  0  0
  -19.0831   -5.1143   -1.6209 N   0  0  0  0  0  0  0  0  0  0  0  0
  -18.7311   -6.4742   -1.9853 C   0  0  0  0  0  0  0  0  0  0  0  0
  -17.7256   -6.5228   -3.0562 C   0  0  0  0  0  0  0  0  0  0  0  0
  -16.6952   -7.3868   -3.0260 N   0  0  0  0  0  0  0  0  0  0  0  0
  -15.7901   -7.4016   -4.0280 C   0  0  0  0  0  0  0  0  0  0  0  0
  -14.7328   -8.3028   -3.9769 C   0  0  0  0  0  0  0  0  0  0  0  0
  -13.8248   -8.2903   -5.0196 C   0  0  0  0  0  0  0  0  0  0  0  0
  -13.9523   -7.4159   -6.0841 C   0  0  0  0  0  0  0  0  0  0  0  0
  -14.9986   -6.5395   -6.1133 C   0  0  0  0  0  0  0  0  0  0  0  0
  -15.9283   -6.5209   -5.0890 C   0  0  0  0  0  0  0  0  0  0  0  0
  -16.9774   -5.6366   -5.1259 C   0  0  0  0  0  0  0  0  0  0  0  0
  -17.0892   -4.8431   -6.0963 O   0  0  0  0  0  0  0  0  0  0  0  0
  -17.8575   -5.6628   -4.0957 N   0  0  0  0  0  0  0  0  0  0  0  0
  -18.2469   -3.1128    0.5631 C   0  0  0  0  0  0  0  0  0  0  0  0
  -20.1137    1.2131    1.4794 H   0  0  0  0  0  0  0  0  0  0  0  0
  -19.0721    2.2264    2.5067 H   0  0  0  0  0  0  0  0  0  0  0  0
  -19.5274    2.7820    0.8777 H   0  0  0  0  0  0  0  0  0  0  0  0
  -17.1753    1.5210    1.4843 H   0  0  0  0  0  0  0  0  0  0  0  0
  -17.9224    1.5404   -0.1249 H   0  0  0  0  0  0  0  0  0  0  0  0
  -19.1639   -0.6356    0.8611 H   0  0  0  0  0  0  0  0  0  0  0  0
  -15.6037   -2.7929    2.6460 H   0  0  0  0  0  0  0  0  0  0  0  0
  -15.9189   -5.2379    2.6832 H   0  0  0  0  0  0  0  0  0  0  0  0
  -17.7096   -6.3011    1.3725 H   0  0  0  0  0  0  0  0  0  0  0  0
  -20.4307   -4.4129   -0.1766 H   0  0  0  0  0  0  0  0  0  0  0  0
  -19.7908   -6.0343    0.1175 H   0  0  0  0  0  0  0  0  0  0  0  0
  -19.8191   -4.7895   -2.2316 H   0  0  0  0  0  0  0  0  0  0  0  0
  -19.6327   -6.9644   -2.3526 H   0  0  0  0  0  0  0  0  0  0  0  0
  -18.3329   -6.9813   -1.1065 H   0  0  0  0  0  0  0  0  0  0  0  0
  -14.6233   -8.9960   -3.1429 H   0  0  0  0  0  0  0  0  0  0  0  0
  -12.9870   -8.9873   -5.0024 H   0  0  0  0  0  0  0  0  0  0  0  0
  -15.1023   -5.8490   -6.9503 H   0  0  0  0  0  0  0  0  0  0  0  0
  -18.6371   -5.0207   -4.1026 H   0  0  0  0  0  0  0  0  0  0  0  0
  -18.9114   -2.4972   -0.0431 H   0  0  0  0  0  0  0  0  0  0  0  0
  -12.1165   -8.1103   -8.6325 O   0  0  0  0  0  0  0  0  0  0  0  0
  -11.5974   -6.9109   -8.2838 C   0  0  0  0  0  0  0  0  0  0  0  0
  -12.2801   -6.4373   -7.1718 C   0  0  0  0  0  0  0  0  0  0  0  0
  -13.2261   -7.4266   -6.8899 C   0  0  0  0  0  0  0  0  0  0  0  0
  -13.0828   -8.4194   -7.8074 N   0  0  0  0  0  0  0  0  0  0  0  0
  -10.4620   -6.2390   -9.0150 C   0  0  0  0  0  0  0  0  0  0  0  0
  -12.1120   -5.5106   -6.6478 H   0  0  0  0  0  0  0  0  0  0  0  0
   -9.5092   -6.5448   -8.5852 H   0  0  0  0  0  0  0  0  0  0  0  0
  -10.4773   -6.5240  -10.0667 H   0  0  0  0  0  0  0  0  0  0  0  0
  -10.5506   -5.1550   -8.9457 H   0  0  0  0  0  0  0  0  0  0  0  0
  1  2  1  0
  2  3  1  0
  3  4  1  0
  4  5  2  0
  4  6  1  0
  6  7  2  0
  7  8  1  0
  8  9  2  0
  9 10  1  0
 10 11  1  0
 11 12  1  0
 12 13  1  0
 13 14  1  0
 14 15  2  0
 15 16  1  0
 16 17  2  0
 17 18  1  0
 18 19  2  0
 19 20  1  0
 20 21  2  0
 21 22  1  0
 22 23  2  0
 22 24  1  0
 10 25  2  0
  6 25  1  0
 14 24  1  0
 16 21  1  0
  1 26  1  0
  1 27  1  0
  1 28  1  0
  2 29  1  0
  2 30  1  0
  3 31  1  0
  7 32  1  0
  8 33  1  0
  9 34  1  0
 11 35  1  0
 11 36  1  0
 12 37  1  0
 13 38  1  0
 13 39  1  0
 17 40  1  0
 18 41  1  0
 20 42  1  0
 24 43  1  0
 25 44  1  0
 45 46  1  0
 45 49  1  0
 46 47  2  0
 46 50  1  0
 47 48  1  0
 47 51  1  0
 48 49  2  0
 50 52  1  0
 50 53  1  0
 50 54  1  0
 19 48  1  0
M  END
>  <CHROM.1>  (26) 
-145.78732048,-150.50072502,-100.04386824,103.62672716,-153.27732802,137.76008317
-17.09621673,-4.41790035,-1.64771840,-2.75627770,-1.30836700,2.76180462

>  <Name>  (26) 
design_4

>  <RI>  (26) 
23619200.000000

>  <Rbt.Current_Directory>  (26) 
/pylon5/mc5pksp/smaltr/gateway_workdirs/PROCESS_93251df5-8da2-4fa9-b874-71853b29d1ad

>  <Rbt.Executable>  (26) 
rbdock ($Id: //depot/dev/client3/rdock/2013.1/src/exe/rbdock.cxx#4 $)

>  <Rbt.Library>  (26) 
libRbt.so (2013.1, Build901 2013/11/27)

>  <Rbt.Parameter_File>  (26) 
/home/smaltr/software/rDock_2013.1_src//data/scripts/dock.prm

>  <Rbt.Receptor>  (26) 
/pylon5/mc5pksp/smaltr/gateway_workdirs/PROCESS_93251df5-8da2-4fa9-b874-71853b29d1ad/output/SnD-Target-Sep02/cavity/pocket_docking.prm

>  <SCORE>  (26) 
-19.110900

>  <SCORE.INTER>  (26) 
-20.563400

>  <SCORE.INTER.CONST>  (26) 
1

>  <SCORE.INTER.POLAR>  (26) 
-1.616940

>  <SCORE.INTER.REPUL>  (26) 
0

>  <SCORE.INTER.ROT>  (26) 
6

>  <SCORE.INTER.VDW>  (26) 
-26.465800

>  <SCORE.INTER.norm>  (26) 
-0.822537

>  <SCORE.INTRA>  (26) 
1.452490

>  <SCORE.INTRA.DIHEDRAL>  (26) 
6.095080

>  <SCORE.INTRA.DIHEDRAL.0>  (26) 
2.644290

>  <SCORE.INTRA.POLAR>  (26) 
0.047540

>  <SCORE.INTRA.POLAR.0>  (26) 
-0.047540

>  <SCORE.INTRA.REPUL>  (26) 
0

>  <SCORE.INTRA.REPUL.0>  (26) 
0

>  <SCORE.INTRA.VDW>  (26) 
-1.756680

>  <SCORE.INTRA.VDW.0>  (26) 
0.178872

>  <SCORE.INTRA.norm>  (26) 
0.058100

>  <SCORE.RESTR>  (26) 
0

>  <SCORE.RESTR.CAVITY>  (26) 
0

>  <SCORE.RESTR.norm>  (26) 
0

>  <SCORE.SYSTEM>  (26) 
0

>  <SCORE.SYSTEM.CONST>  (26) 
0

>  <SCORE.SYSTEM.DIHEDRAL>  (26) 
0

>  <SCORE.SYSTEM.norm>  (26) 
0

>  <SCORE.heavy>  (26) 
25

>  <SCORE.norm>  (26) 
-0.764437

>  <SMILES>  (26) 
CCNC(=O)c1cccc(CNCc2nc3ccccc3c(=O)[nH]2)c1

>  <Cycle>  (26) 
228

>  <MolWeight>  (26) 
336.395000

>  <LogP>  (26) 
1.962600

>  <QED>  (26) 
0.642134

>  <SAS>  (26) 
1.3183429949785888

$$$$
design_8
     RDKit          3D

 55 58  0  0  0  0  0  0  0  0999 V2000
  -14.3440   -9.8141   -5.8947 C   0  0  0  0  0  0  0  0  0  0  0  0
  -15.0916   -8.5589   -5.6025 C   0  0  0  0  0  0  0  0  0  0  0  0
  -15.4554   -7.7088   -6.6142 C   0  0  0  0  0  0  0  0  0  0  0  0
  -16.1419   -6.5683   -6.2866 C   0  0  0  0  0  0  0  0  0  0  0  0
  -16.4612   -6.2768   -4.9824 C   0  0  0  0  0  0  0  0  0  0  0  0
  -16.1048   -7.1249   -3.9180 C   0  0  0  0  0  0  0  0  0  0  0  0
  -16.4659   -6.7645   -2.6085 N   0  0  0  0  0  0  0  0  0  0  0  0
  -17.5479   -5.9717   -2.2413 C   0  0  0  0  0  0  0  0  0  0  0  0
  -18.3349   -5.4837   -3.0628 O   0  0  0  0  0  0  0  0  0  0  0  0
  -17.7934   -5.6815   -0.8035 C   0  0  0  0  0  0  0  0  0  0  0  0
  -16.5856   -5.4635    0.0162 C   0  0  0  0  0  0  0  0  0  0  0  0
  -16.7486   -4.8801    1.3696 C   0  0  0  0  0  0  0  0  0  0  0  0
  -17.2993   -3.5543    1.4110 N   0  0  0  0  0  0  0  0  0  0  0  0
  -18.5541   -3.3000    1.7754 C   0  0  0  0  0  0  0  0  0  0  0  0
  -19.3262   -4.2234    2.0833 O   0  0  0  0  0  0  0  0  0  0  0  0
  -19.0689   -2.0429    1.8333 N   0  0  0  0  0  0  0  0  0  0  0  0
  -18.2598   -1.0219    1.5033 C   0  0  0  0  0  0  0  0  0  0  0  0
  -18.7007    0.2894    1.5339 C   0  0  0  0  0  0  0  0  0  0  0  0
  -17.8508    1.3181    1.1905 C   0  0  0  0  0  0  0  0  0  0  0  0
  -16.5444    1.1060    0.8061 C   0  0  0  0  0  0  0  0  0  0  0  0
  -16.0926   -0.1941    0.7712 C   0  0  0  0  0  0  0  0  0  0  0  0
  -16.9534   -1.2371    1.1191 C   0  0  0  0  0  0  0  0  0  0  0  0
  -16.4785   -2.5075    1.0750 C   0  0  0  0  0  0  0  0  0  0  0  0
  -15.2797   -2.7761    0.7281 O   0  0  0  0  0  0  0  0  0  0  0  0
  -15.4196   -8.2574   -4.2724 C   0  0  0  0  0  0  0  0  0  0  0  0
  -14.9192  -10.6705   -5.5429 H   0  0  0  0  0  0  0  0  0  0  0  0
  -14.1834   -9.9002   -6.9694 H   0  0  0  0  0  0  0  0  0  0  0  0
  -15.2057   -7.9335   -7.6511 H   0  0  0  0  0  0  0  0  0  0  0  0
  -16.4404   -5.8790   -7.0765 H   0  0  0  0  0  0  0  0  0  0  0  0
  -17.0081   -5.3592   -4.7655 H   0  0  0  0  0  0  0  0  0  0  0  0
  -15.8832   -7.1152   -1.8618 H   0  0  0  0  0  0  0  0  0  0  0  0
  -18.2739   -6.5713   -0.3968 H   0  0  0  0  0  0  0  0  0  0  0  0
  -18.4085   -4.7837   -0.7417 H   0  0  0  0  0  0  0  0  0  0  0  0
  -16.0208   -4.7108   -0.5338 H   0  0  0  0  0  0  0  0  0  0  0  0
  -16.0989   -6.4312    0.1380 H   0  0  0  0  0  0  0  0  0  0  0  0
  -15.7430   -4.7983    1.7821 H   0  0  0  0  0  0  0  0  0  0  0  0
  -17.4061   -5.5352    1.9411 H   0  0  0  0  0  0  0  0  0  0  0  0
  -20.0256   -1.8821    2.1144 H   0  0  0  0  0  0  0  0  0  0  0  0
  -19.7259    0.5097    1.8313 H   0  0  0  0  0  0  0  0  0  0  0  0
  -18.2268    2.3407    1.2242 H   0  0  0  0  0  0  0  0  0  0  0  0
  -15.8923    1.9377    0.5393 H   0  0  0  0  0  0  0  0  0  0  0  0
  -15.0663   -0.4085    0.4730 H   0  0  0  0  0  0  0  0  0  0  0  0
  -15.1171   -8.9522   -3.4889 H   0  0  0  0  0  0  0  0  0  0  0  0
  -13.4244   -9.7909   -5.4079 N   0  0  0  0  0  0  0  0  0  0  0  0
  -13.2882   -9.7006   -4.0832 C   0  0  0  0  0  0  0  0  0  0  0  0
  -12.0713   -9.6747   -3.5082 N   0  0  0  0  0  0  0  0  0  0  0  0
  -10.8627   -9.7466   -4.3505 C   0  0  0  0  0  0  0  0  0  0  0  0
  -11.0113   -9.8363   -5.6846 C   0  0  0  0  0  0  0  0  0  0  0  0
  -12.3814   -9.8595   -6.2369 C   0  0  0  0  0  0  0  0  0  0  0  0
  -12.5129   -9.9415   -7.4465 O   0  0  0  0  0  0  0  0  0  0  0  0
  -14.3745   -9.6369   -3.3293 N   0  0  0  0  0  0  0  0  0  0  0  0
   -9.8828   -9.7271   -3.9077 H   0  0  0  0  0  0  0  0  0  0  0  0
  -10.1827   -9.8925   -6.3615 H   0  0  0  0  0  0  0  0  0  0  0  0
  -14.2443   -9.5703   -2.3424 H   0  0  0  0  0  0  0  0  0  0  0  0
  -15.2925   -9.6535   -3.7202 H   0  0  0  0  0  0  0  0  0  0  0  0
  1  2  1  0
  2  3  2  0
  3  4  1  0
  4  5  2  0
  5  6  1  0
  6  7  1  0
  7  8  1  0
  8  9  2  0
  8 10  1  0
 10 11  1  0
 11 12  1  0
 12 13  1  0
 13 14  1  0
 14 15  2  0
 14 16  1  0
 16 17  1  0
 17 18  2  0
 18 19  1  0
 19 20  2  0
 20 21  1  0
 21 22  2  0
 22 23  1  0
 23 24  2  0
  6 25  2  0
  2 25  1  0
 13 23  1  0
 17 22  1  0
  1 26  1  0
  1 27  1  0
  3 28  1  0
  4 29  1  0
  5 30  1  0
  7 31  1  0
 10 32  1  0
 10 33  1  0
 11 34  1  0
 11 35  1  0
 12 36  1  0
 12 37  1  0
 16 38  1  0
 18 39  1  0
 19 40  1  0
 20 41  1  0
 21 42  1  0
 25 43  1  0
 44 45  1  0
 44 49  1  0
 45 46  2  0
 45 51  1  0
 46 47  1  0
 47 48  2  0
 47 52  1  0
 48 49  1  0
 48 53  1  0
 49 50  2  0
 51 54  1  0
 51 55  1  0
  1 44  1  0
M  END
>  <CHROM.1>  (27) 
26.90528258,37.87719743,166.66736792,-62.50261021,104.80548779,-16.93186781
-4.30841246,-1.13594729,-1.09322767,1.10604832,0.33796808

>  <Name>  (27) 
design_8

>  <RI>  (27) 
40019600.000000

>  <Rbt.Current_Directory>  (27) 
/pylon5/mc5pksp/smaltr/gateway_workdirs/PROCESS_93251df5-8da2-4fa9-b874-71853b29d1ad

>  <Rbt.Executable>  (27) 
rbdock ($Id: //depot/dev/client3/rdock/2013.1/src/exe/rbdock.cxx#4 $)

>  <Rbt.Library>  (27) 
libRbt.so (2013.1, Build901 2013/11/27)

>  <Rbt.Parameter_File>  (27) 
/home/smaltr/software/rDock_2013.1_src//data/scripts/dock.prm

>  <Rbt.Receptor>  (27) 
/pylon5/mc5pksp/smaltr/gateway_workdirs/PROCESS_93251df5-8da2-4fa9-b874-71853b29d1ad/output/SnD-Target-Sep02/cavity/pocket_docking.prm

>  <SCORE>  (27) 
-18.583100

>  <SCORE.INTER>  (27) 
-20.142300

>  <SCORE.INTER.CONST>  (27) 
1

>  <SCORE.INTER.POLAR>  (27) 
-1.412400

>  <SCORE.INTER.REPUL>  (27) 
0

>  <SCORE.INTER.ROT>  (27) 
5

>  <SCORE.INTER.VDW>  (27) 
-25.740100

>  <SCORE.INTER.norm>  (27) 
-0.805690

>  <SCORE.INTRA>  (27) 
1.559130

>  <SCORE.INTRA.DIHEDRAL>  (27) 
3.626300

>  <SCORE.INTRA.DIHEDRAL.0>  (27) 
3.606730

>  <SCORE.INTRA.POLAR>  (27) 
0

>  <SCORE.INTRA.POLAR.0>  (27) 
0

>  <SCORE.INTRA.REPUL>  (27) 
0

>  <SCORE.INTRA.REPUL.0>  (27) 
0

>  <SCORE.INTRA.VDW>  (27) 
-0.254023

>  <SCORE.INTRA.VDW.0>  (27) 
-0.668565

>  <SCORE.INTRA.norm>  (27) 
0.062365

>  <SCORE.RESTR>  (27) 
0

>  <SCORE.RESTR.CAVITY>  (27) 
0

>  <SCORE.RESTR.norm>  (27) 
0

>  <SCORE.SYSTEM>  (27) 
0

>  <SCORE.SYSTEM.CONST>  (27) 
0

>  <SCORE.SYSTEM.DIHEDRAL>  (27) 
0

>  <SCORE.SYSTEM.norm>  (27) 
0

>  <SCORE.heavy>  (27) 
25

>  <SCORE.norm>  (27) 
-0.743325

>  <SMILES>  (27) 
Cc1cccc(NC(=O)CCCn2c(=O)[nH]c3ccccc3c2=O)c1

>  <Cycle>  (27) 
228

>  <MolWeight>  (27) 
337.379000

>  <LogP>  (27) 
2.417120

>  <QED>  (27) 
0.749761

>  <SAS>  (27) 
1.2401404748590759

$$$$
design_8
     RDKit          3D

 57 60  0  0  0  0  0  0  0  0999 V2000
  -14.3440   -9.8141   -5.8947 C   0  0  0  0  0  0  0  0  0  0  0  0
  -15.0916   -8.5589   -5.6025 C   0  0  0  0  0  0  0  0  0  0  0  0
  -15.4554   -7.7088   -6.6142 C   0  0  0  0  0  0  0  0  0  0  0  0
  -16.1419   -6.5683   -6.2866 C   0  0  0  0  0  0  0  0  0  0  0  0
  -16.4612   -6.2768   -4.9824 C   0  0  0  0  0  0  0  0  0  0  0  0
  -16.1048   -7.1249   -3.9180 C   0  0  0  0  0  0  0  0  0  0  0  0
  -16.4659   -6.7645   -2.6085 N   0  0  0  0  0  0  0  0  0  0  0  0
  -17.5479   -5.9717   -2.2413 C   0  0  0  0  0  0  0  0  0  0  0  0
  -18.3349   -5.4837   -3.0628 O   0  0  0  0  0  0  0  0  0  0  0  0
  -17.7934   -5.6815   -0.8035 C   0  0  0  0  0  0  0  0  0  0  0  0
  -16.5856   -5.4635    0.0162 C   0  0  0  0  0  0  0  0  0  0  0  0
  -16.7486   -4.8801    1.3696 C   0  0  0  0  0  0  0  0  0  0  0  0
  -17.2993   -3.5543    1.4110 N   0  0  0  0  0  0  0  0  0  0  0  0
  -18.5541   -3.3000    1.7754 C   0  0  0  0  0  0  0  0  0  0  0  0
  -19.3262   -4.2234    2.0833 O   0  0  0  0  0  0  0  0  0  0  0  0
  -19.0689   -2.0429    1.8333 N   0  0  0  0  0  0  0  0  0  0  0  0
  -18.2598   -1.0219    1.5033 C   0  0  0  0  0  0  0  0  0  0  0  0
  -18.7007    0.2894    1.5339 C   0  0  0  0  0  0  0  0  0  0  0  0
  -17.8508    1.3181    1.1905 C   0  0  0  0  0  0  0  0  0  0  0  0
  -16.5444    1.1060    0.8061 C   0  0  0  0  0  0  0  0  0  0  0  0
  -16.0926   -0.1941    0.7712 C   0  0  0  0  0  0  0  0  0  0  0  0
  -16.9534   -1.2371    1.1191 C   0  0  0  0  0  0  0  0  0  0  0  0
  -16.4785   -2.5075    1.0750 C   0  0  0  0  0  0  0  0  0  0  0  0
  -15.2797   -2.7761    0.7281 O   0  0  0  0  0  0  0  0  0  0  0  0
  -15.4196   -8.2574   -4.2724 C   0  0  0  0  0  0  0  0  0  0  0  0
  -13.3809   -9.7898   -5.3848 H   0  0  0  0  0  0  0  0  0  0  0  0
  -14.9192  -10.6705   -5.5429 H   0  0  0  0  0  0  0  0  0  0  0  0
  -14.1834   -9.9002   -6.9694 H   0  0  0  0  0  0  0  0  0  0  0  0
  -15.2057   -7.9335   -7.6511 H   0  0  0  0  0  0  0  0  0  0  0  0
  -17.0081   -5.3592   -4.7655 H   0  0  0  0  0  0  0  0  0  0  0  0
  -15.8832   -7.1152   -1.8618 H   0  0  0  0  0  0  0  0  0  0  0  0
  -18.2739   -6.5713   -0.3968 H   0  0  0  0  0  0  0  0  0  0  0  0
  -18.4085   -4.7837   -0.7417 H   0  0  0  0  0  0  0  0  0  0  0  0
  -16.0208   -4.7108   -0.5338 H   0  0  0  0  0  0  0  0  0  0  0  0
  -16.0989   -6.4312    0.1380 H   0  0  0  0  0  0  0  0  0  0  0  0
  -15.7430   -4.7983    1.7821 H   0  0  0  0  0  0  0  0  0  0  0  0
  -17.4061   -5.5352    1.9411 H   0  0  0  0  0  0  0  0  0  0  0  0
  -20.0256   -1.8821    2.1144 H   0  0  0  0  0  0  0  0  0  0  0  0
  -19.7259    0.5097    1.8313 H   0  0  0  0  0  0  0  0  0  0  0  0
  -18.2268    2.3407    1.2242 H   0  0  0  0  0  0  0  0  0  0  0  0
  -15.8923    1.9377    0.5393 H   0  0  0  0  0  0  0  0  0  0  0  0
  -15.0663   -0.4085    0.4730 H   0  0  0  0  0  0  0  0  0  0  0  0
  -15.1171   -8.9522   -3.4889 H   0  0  0  0  0  0  0  0  0  0  0  0
  -18.3403   -4.8120   -6.2592 C   0  0  0  0  0  0  0  0  0  0  0  0
  -19.1825   -5.8812   -6.5701 C   0  0  0  0  0  0  0  0  0  0  0  0
  -20.5466   -5.8042   -6.3194 C   0  0  0  0  0  0  0  0  0  0  0  0
  -21.0874   -4.6584   -5.7523 C   0  0  0  0  0  0  0  0  0  0  0  0
  -20.2601   -3.5885   -5.4379 C   0  0  0  0  0  0  0  0  0  0  0  0
  -18.8961   -3.6651   -5.6895 C   0  0  0  0  0  0  0  0  0  0  0  0
  -16.8869   -4.8939   -6.5267 C   0  0  0  0  0  0  0  0  0  0  0  0
  -16.4226   -5.9201   -7.0294 O   0  0  0  0  0  0  0  0  0  0  0  0
  -16.1667   -3.9335   -6.2416 O   0  0  0  0  0  0  0  0  0  0  0  0
  -18.7716   -6.7779   -7.0123 H   0  0  0  0  0  0  0  0  0  0  0  0
  -21.1859   -6.6401   -6.5661 H   0  0  0  0  0  0  0  0  0  0  0  0
  -22.1476   -4.5990   -5.5578 H   0  0  0  0  0  0  0  0  0  0  0  0
  -20.6749   -2.6945   -4.9976 H   0  0  0  0  0  0  0  0  0  0  0  0
  -18.2599   -2.8270   -5.4406 H   0  0  0  0  0  0  0  0  0  0  0  0
  1  2  1  0
  2  3  2  0
  3  4  1  0
  4  5  2  0
  5  6  1  0
  6  7  1  0
  7  8  1  0
  8  9  2  0
  8 10  1  0
 10 11  1  0
 11 12  1  0
 12 13  1  0
 13 14  1  0
 14 15  2  0
 14 16  1  0
 16 17  1  0
 17 18  2  0
 18 19  1  0
 19 20  2  0
 20 21  1  0
 21 22  2  0
 22 23  1  0
 23 24  2  0
  6 25  2  0
  2 25  1  0
 13 23  1  0
 17 22  1  0
  1 26  1  0
  1 27  1  0
  1 28  1  0
  3 29  1  0
  5 30  1  0
  7 31  1  0
 10 32  1  0
 10 33  1  0
 11 34  1  0
 11 35  1  0
 12 36  1  0
 12 37  1  0
 16 38  1  0
 18 39  1  0
 19 40  1  0
 20 41  1  0
 21 42  1  0
 25 43  1  0
 44 49  1  0
 44 50  1  0
 44 45  2  0
 45 53  1  0
 45 46  1  0
 46 47  2  0
 46 54  1  0
 47 48  1  0
 47 55  1  0
 48 49  2  0
 48 56  1  0
 49 57  1  0
 50 51  1  0
 50 52  2  0
  4 51  1  0
M  END
>  <CHROM.1>  (28) 
26.90528258,37.87719743,166.66736792,-62.50261021,104.80548779,-16.93186781
-4.30841246,-1.13594729,-1.09322767,1.10604832,0.33796808

>  <Name>  (28) 
design_8

>  <RI>  (28) 
40019600.000000

>  <Rbt.Current_Directory>  (28) 
/pylon5/mc5pksp/smaltr/gateway_workdirs/PROCESS_93251df5-8da2-4fa9-b874-71853b29d1ad

>  <Rbt.Executable>  (28) 
rbdock ($Id: //depot/dev/client3/rdock/2013.1/src/exe/rbdock.cxx#4 $)

>  <Rbt.Library>  (28) 
libRbt.so (2013.1, Build901 2013/11/27)

>  <Rbt.Parameter_File>  (28) 
/home/smaltr/software/rDock_2013.1_src//data/scripts/dock.prm

>  <Rbt.Receptor>  (28) 
/pylon5/mc5pksp/smaltr/gateway_workdirs/PROCESS_93251df5-8da2-4fa9-b874-71853b29d1ad/output/SnD-Target-Sep02/cavity/pocket_docking.prm

>  <SCORE>  (28) 
-18.583100

>  <SCORE.INTER>  (28) 
-20.142300

>  <SCORE.INTER.CONST>  (28) 
1

>  <SCORE.INTER.POLAR>  (28) 
-1.412400

>  <SCORE.INTER.REPUL>  (28) 
0

>  <SCORE.INTER.ROT>  (28) 
5

>  <SCORE.INTER.VDW>  (28) 
-25.740100

>  <SCORE.INTER.norm>  (28) 
-0.805690

>  <SCORE.INTRA>  (28) 
1.559130

>  <SCORE.INTRA.DIHEDRAL>  (28) 
3.626300

>  <SCORE.INTRA.DIHEDRAL.0>  (28) 
3.606730

>  <SCORE.INTRA.POLAR>  (28) 
0

>  <SCORE.INTRA.POLAR.0>  (28) 
0

>  <SCORE.INTRA.REPUL>  (28) 
0

>  <SCORE.INTRA.REPUL.0>  (28) 
0

>  <SCORE.INTRA.VDW>  (28) 
-0.254023

>  <SCORE.INTRA.VDW.0>  (28) 
-0.668565

>  <SCORE.INTRA.norm>  (28) 
0.062365

>  <SCORE.RESTR>  (28) 
0

>  <SCORE.RESTR.CAVITY>  (28) 
0

>  <SCORE.RESTR.norm>  (28) 
0

>  <SCORE.SYSTEM>  (28) 
0

>  <SCORE.SYSTEM.CONST>  (28) 
0

>  <SCORE.SYSTEM.DIHEDRAL>  (28) 
0

>  <SCORE.SYSTEM.norm>  (28) 
0

>  <SCORE.heavy>  (28) 
25

>  <SCORE.norm>  (28) 
-0.743325

>  <SMILES>  (28) 
Cc1cccc(NC(=O)CCCn2c(=O)[nH]c3ccccc3c2=O)c1

>  <Cycle>  (28) 
228

>  <MolWeight>  (28) 
337.379000

>  <LogP>  (28) 
2.417120

>  <QED>  (28) 
0.749761

>  <SAS>  (28) 
1

$$$$
design_8
     RDKit          3D

 57 60  0  0  0  0  0  0  0  0999 V2000
  -14.3440   -9.8141   -5.8947 C   0  0  0  0  0  0  0  0  0  0  0  0
  -15.0916   -8.5589   -5.6025 C   0  0  0  0  0  0  0  0  0  0  0  0
  -15.4554   -7.7088   -6.6142 C   0  0  0  0  0  0  0  0  0  0  0  0
  -16.1419   -6.5683   -6.2866 C   0  0  0  0  0  0  0  0  0  0  0  0
  -16.4612   -6.2768   -4.9824 C   0  0  0  0  0  0  0  0  0  0  0  0
  -16.1048   -7.1249   -3.9180 C   0  0  0  0  0  0  0  0  0  0  0  0
  -16.4659   -6.7645   -2.6085 N   0  0  0  0  0  0  0  0  0  0  0  0
  -17.5479   -5.9717   -2.2413 C   0  0  0  0  0  0  0  0  0  0  0  0
  -18.3349   -5.4837   -3.0628 O   0  0  0  0  0  0  0  0  0  0  0  0
  -17.7934   -5.6815   -0.8035 C   0  0  0  0  0  0  0  0  0  0  0  0
  -16.5856   -5.4635    0.0162 C   0  0  0  0  0  0  0  0  0  0  0  0
  -16.7486   -4.8801    1.3696 C   0  0  0  0  0  0  0  0  0  0  0  0
  -17.2993   -3.5543    1.4110 N   0  0  0  0  0  0  0  0  0  0  0  0
  -18.5541   -3.3000    1.7754 C   0  0  0  0  0  0  0  0  0  0  0  0
  -19.3262   -4.2234    2.0833 O   0  0  0  0  0  0  0  0  0  0  0  0
  -19.0689   -2.0429    1.8333 N   0  0  0  0  0  0  0  0  0  0  0  0
  -18.2598   -1.0219    1.5033 C   0  0  0  0  0  0  0  0  0  0  0  0
  -18.7007    0.2894    1.5339 C   0  0  0  0  0  0  0  0  0  0  0  0
  -17.8508    1.3181    1.1905 C   0  0  0  0  0  0  0  0  0  0  0  0
  -16.5444    1.1060    0.8061 C   0  0  0  0  0  0  0  0  0  0  0  0
  -16.0926   -0.1941    0.7712 C   0  0  0  0  0  0  0  0  0  0  0  0
  -16.9534   -1.2371    1.1191 C   0  0  0  0  0  0  0  0  0  0  0  0
  -16.4785   -2.5075    1.0750 C   0  0  0  0  0  0  0  0  0  0  0  0
  -15.2797   -2.7761    0.7281 O   0  0  0  0  0  0  0  0  0  0  0  0
  -15.4196   -8.2574   -4.2724 C   0  0  0  0  0  0  0  0  0  0  0  0
  -13.3809   -9.7898   -5.3848 H   0  0  0  0  0  0  0  0  0  0  0  0
  -14.9192  -10.6705   -5.5429 H   0  0  0  0  0  0  0  0  0  0  0  0
  -14.1834   -9.9002   -6.9694 H   0  0  0  0  0  0  0  0  0  0  0  0
  -15.2057   -7.9335   -7.6511 H   0  0  0  0  0  0  0  0  0  0  0  0
  -16.4404   -5.8790   -7.0765 H   0  0  0  0  0  0  0  0  0  0  0  0
  -15.8832   -7.1152   -1.8618 H   0  0  0  0  0  0  0  0  0  0  0  0
  -18.2739   -6.5713   -0.3968 H   0  0  0  0  0  0  0  0  0  0  0  0
  -18.4085   -4.7837   -0.7417 H   0  0  0  0  0  0  0  0  0  0  0  0
  -16.0208   -4.7108   -0.5338 H   0  0  0  0  0  0  0  0  0  0  0  0
  -16.0989   -6.4312    0.1380 H   0  0  0  0  0  0  0  0  0  0  0  0
  -15.7430   -4.7983    1.7821 H   0  0  0  0  0  0  0  0  0  0  0  0
  -17.4061   -5.5352    1.9411 H   0  0  0  0  0  0  0  0  0  0  0  0
  -20.0256   -1.8821    2.1144 H   0  0  0  0  0  0  0  0  0  0  0  0
  -19.7259    0.5097    1.8313 H   0  0  0  0  0  0  0  0  0  0  0  0
  -18.2268    2.3407    1.2242 H   0  0  0  0  0  0  0  0  0  0  0  0
  -15.8923    1.9377    0.5393 H   0  0  0  0  0  0  0  0  0  0  0  0
  -15.0663   -0.4085    0.4730 H   0  0  0  0  0  0  0  0  0  0  0  0
  -15.1171   -8.9522   -3.4889 H   0  0  0  0  0  0  0  0  0  0  0  0
  -19.0559   -5.6091   -5.8426 C   0  0  0  0  0  0  0  0  0  0  0  0
  -18.5396   -5.2671   -7.0940 C   0  0  0  0  0  0  0  0  0  0  0  0
  -19.3657   -5.2101   -8.2093 C   0  0  0  0  0  0  0  0  0  0  0  0
  -20.7187   -5.4963   -8.0897 C   0  0  0  0  0  0  0  0  0  0  0  0
  -21.2441   -5.8384   -6.8508 C   0  0  0  0  0  0  0  0  0  0  0  0
  -20.4182   -5.8945   -5.7352 C   0  0  0  0  0  0  0  0  0  0  0  0
  -18.1757   -5.6694   -4.6542 C   0  0  0  0  0  0  0  0  0  0  0  0
  -16.9755   -5.4139   -4.7784 O   0  0  0  0  0  0  0  0  0  0  0  0
  -18.6596   -5.9745   -3.5610 O   0  0  0  0  0  0  0  0  0  0  0  0
  -17.4874   -5.0421   -7.1978 H   0  0  0  0  0  0  0  0  0  0  0  0
  -18.9513   -4.9433   -9.1713 H   0  0  0  0  0  0  0  0  0  0  0  0
  -21.3603   -5.4517   -8.9568 H   0  0  0  0  0  0  0  0  0  0  0  0
  -22.2956   -6.0611   -6.7515 H   0  0  0  0  0  0  0  0  0  0  0  0
  -20.8364   -6.1624   -4.7749 H   0  0  0  0  0  0  0  0  0  0  0  0
  1  2  1  0
  2  3  2  0
  3  4  1  0
  4  5  2  0
  5  6  1  0
  6  7  1  0
  7  8  1  0
  8  9  2  0
  8 10  1  0
 10 11  1  0
 11 12  1  0
 12 13  1  0
 13 14  1  0
 14 15  2  0
 14 16  1  0
 16 17  1  0
 17 18  2  0
 18 19  1  0
 19 20  2  0
 20 21  1  0
 21 22  2  0
 22 23  1  0
 23 24  2  0
  6 25  2  0
  2 25  1  0
 13 23  1  0
 17 22  1  0
  1 26  1  0
  1 27  1  0
  1 28  1  0
  3 29  1  0
  4 30  1  0
  7 31  1  0
 10 32  1  0
 10 33  1  0
 11 34  1  0
 11 35  1  0
 12 36  1  0
 12 37  1  0
 16 38  1  0
 18 39  1  0
 19 40  1  0
 20 41  1  0
 21 42  1  0
 25 43  1  0
 44 49  1  0
 44 50  1  0
 44 45  2  0
 45 53  1  0
 45 46  1  0
 46 47  2  0
 46 54  1  0
 47 48  1  0
 47 55  1  0
 48 49  2  0
 48 56  1  0
 49 57  1  0
 50 51  1  0
 50 52  2  0
  5 51  1  0
M  END
>  <CHROM.1>  (29) 
26.90528258,37.87719743,166.66736792,-62.50261021,104.80548779,-16.93186781
-4.30841246,-1.13594729,-1.09322767,1.10604832,0.33796808

>  <Name>  (29) 
design_8

>  <RI>  (29) 
40019600.000000

>  <Rbt.Current_Directory>  (29) 
/pylon5/mc5pksp/smaltr/gateway_workdirs/PROCESS_93251df5-8da2-4fa9-b874-71853b29d1ad

>  <Rbt.Executable>  (29) 
rbdock ($Id: //depot/dev/client3/rdock/2013.1/src/exe/rbdock.cxx#4 $)

>  <Rbt.Library>  (29) 
libRbt.so (2013.1, Build901 2013/11/27)

>  <Rbt.Parameter_File>  (29) 
/home/smaltr/software/rDock_2013.1_src//data/scripts/dock.prm

>  <Rbt.Receptor>  (29) 
/pylon5/mc5pksp/smaltr/gateway_workdirs/PROCESS_93251df5-8da2-4fa9-b874-71853b29d1ad/output/SnD-Target-Sep02/cavity/pocket_docking.prm

>  <SCORE>  (29) 
-18.583100

>  <SCORE.INTER>  (29) 
-20.142300

>  <SCORE.INTER.CONST>  (29) 
1

>  <SCORE.INTER.POLAR>  (29) 
-1.412400

>  <SCORE.INTER.REPUL>  (29) 
0

>  <SCORE.INTER.ROT>  (29) 
5

>  <SCORE.INTER.VDW>  (29) 
-25.740100

>  <SCORE.INTER.norm>  (29) 
-0.805690

>  <SCORE.INTRA>  (29) 
1.559130

>  <SCORE.INTRA.DIHEDRAL>  (29) 
3.626300

>  <SCORE.INTRA.DIHEDRAL.0>  (29) 
3.606730

>  <SCORE.INTRA.POLAR>  (29) 
0

>  <SCORE.INTRA.POLAR.0>  (29) 
0

>  <SCORE.INTRA.REPUL>  (29) 
0

>  <SCORE.INTRA.REPUL.0>  (29) 
0

>  <SCORE.INTRA.VDW>  (29) 
-0.254023

>  <SCORE.INTRA.VDW.0>  (29) 
-0.668565

>  <SCORE.INTRA.norm>  (29) 
0.062365

>  <SCORE.RESTR>  (29) 
0

>  <SCORE.RESTR.CAVITY>  (29) 
0

>  <SCORE.RESTR.norm>  (29) 
0

>  <SCORE.SYSTEM>  (29) 
0

>  <SCORE.SYSTEM.CONST>  (29) 
0

>  <SCORE.SYSTEM.DIHEDRAL>  (29) 
0

>  <SCORE.SYSTEM.norm>  (29) 
0

>  <SCORE.heavy>  (29) 
25

>  <SCORE.norm>  (29) 
-0.743325

>  <SMILES>  (29) 
Cc1cccc(NC(=O)CCCn2c(=O)[nH]c3ccccc3c2=O)c1

>  <Cycle>  (29) 
228

>  <MolWeight>  (29) 
337.379000

>  <LogP>  (29) 
2.417120

>  <QED>  (29) 
0.749761

>  <SAS>  (29) 
1

$$$$
design_8
     RDKit          3D

 57 60  0  0  0  0  0  0  0  0999 V2000
  -14.3440   -9.8141   -5.8947 C   0  0  0  0  0  0  0  0  0  0  0  0
  -15.0916   -8.5589   -5.6025 C   0  0  0  0  0  0  0  0  0  0  0  0
  -15.4554   -7.7088   -6.6142 C   0  0  0  0  0  0  0  0  0  0  0  0
  -16.1419   -6.5683   -6.2866 C   0  0  0  0  0  0  0  0  0  0  0  0
  -16.4612   -6.2768   -4.9824 C   0  0  0  0  0  0  0  0  0  0  0  0
  -16.1048   -7.1249   -3.9180 C   0  0  0  0  0  0  0  0  0  0  0  0
  -16.4659   -6.7645   -2.6085 N   0  0  0  0  0  0  0  0  0  0  0  0
  -17.5479   -5.9717   -2.2413 C   0  0  0  0  0  0  0  0  0  0  0  0
  -18.3349   -5.4837   -3.0628 O   0  0  0  0  0  0  0  0  0  0  0  0
  -17.7934   -5.6815   -0.8035 C   0  0  0  0  0  0  0  0  0  0  0  0
  -16.5856   -5.4635    0.0162 C   0  0  0  0  0  0  0  0  0  0  0  0
  -16.7486   -4.8801    1.3696 C   0  0  0  0  0  0  0  0  0  0  0  0
  -17.2993   -3.5543    1.4110 N   0  0  0  0  0  0  0  0  0  0  0  0
  -18.5541   -3.3000    1.7754 C   0  0  0  0  0  0  0  0  0  0  0  0
  -19.3262   -4.2234    2.0833 O   0  0  0  0  0  0  0  0  0  0  0  0
  -19.0689   -2.0429    1.8333 N   0  0  0  0  0  0  0  0  0  0  0  0
  -18.2598   -1.0219    1.5033 C   0  0  0  0  0  0  0  0  0  0  0  0
  -18.7007    0.2894    1.5339 C   0  0  0  0  0  0  0  0  0  0  0  0
  -17.8508    1.3181    1.1905 C   0  0  0  0  0  0  0  0  0  0  0  0
  -16.5444    1.1060    0.8061 C   0  0  0  0  0  0  0  0  0  0  0  0
  -16.0926   -0.1941    0.7712 C   0  0  0  0  0  0  0  0  0  0  0  0
  -16.9534   -1.2371    1.1191 C   0  0  0  0  0  0  0  0  0  0  0  0
  -16.4785   -2.5075    1.0750 C   0  0  0  0  0  0  0  0  0  0  0  0
  -15.2797   -2.7761    0.7281 O   0  0  0  0  0  0  0  0  0  0  0  0
  -15.4196   -8.2574   -4.2724 C   0  0  0  0  0  0  0  0  0  0  0  0
  -13.3809   -9.7898   -5.3848 H   0  0  0  0  0  0  0  0  0  0  0  0
  -14.9192  -10.6705   -5.5429 H   0  0  0  0  0  0  0  0  0  0  0  0
  -14.1834   -9.9002   -6.9694 H   0  0  0  0  0  0  0  0  0  0  0  0
  -16.4404   -5.8790   -7.0765 H   0  0  0  0  0  0  0  0  0  0  0  0
  -17.0081   -5.3592   -4.7655 H   0  0  0  0  0  0  0  0  0  0  0  0
  -15.8832   -7.1152   -1.8618 H   0  0  0  0  0  0  0  0  0  0  0  0
  -18.2739   -6.5713   -0.3968 H   0  0  0  0  0  0  0  0  0  0  0  0
  -18.4085   -4.7837   -0.7417 H   0  0  0  0  0  0  0  0  0  0  0  0
  -16.0208   -4.7108   -0.5338 H   0  0  0  0  0  0  0  0  0  0  0  0
  -16.0989   -6.4312    0.1380 H   0  0  0  0  0  0  0  0  0  0  0  0
  -15.7430   -4.7983    1.7821 H   0  0  0  0  0  0  0  0  0  0  0  0
  -17.4061   -5.5352    1.9411 H   0  0  0  0  0  0  0  0  0  0  0  0
  -20.0256   -1.8821    2.1144 H   0  0  0  0  0  0  0  0  0  0  0  0
  -19.7259    0.5097    1.8313 H   0  0  0  0  0  0  0  0  0  0  0  0
  -18.2268    2.3407    1.2242 H   0  0  0  0  0  0  0  0  0  0  0  0
  -15.8923    1.9377    0.5393 H   0  0  0  0  0  0  0  0  0  0  0  0
  -15.0663   -0.4085    0.4730 H   0  0  0  0  0  0  0  0  0  0  0  0
  -15.1171   -8.9522   -3.4889 H   0  0  0  0  0  0  0  0  0  0  0  0
  -13.4026   -6.5495   -8.1504 C   0  0  0  0  0  0  0  0  0  0  0  0
  -14.2072   -5.4271   -8.3560 C   0  0  0  0  0  0  0  0  0  0  0  0
  -13.6470   -4.2143   -8.7367 C   0  0  0  0  0  0  0  0  0  0  0  0
  -12.2747   -4.1060   -8.9150 C   0  0  0  0  0  0  0  0  0  0  0  0
  -11.4636   -5.2148   -8.7130 C   0  0  0  0  0  0  0  0  0  0  0  0
  -12.0239   -6.4279   -8.3332 C   0  0  0  0  0  0  0  0  0  0  0  0
  -13.9996   -7.8417   -7.7451 C   0  0  0  0  0  0  0  0  0  0  0  0
  -15.2206   -7.9201   -7.5893 O   0  0  0  0  0  0  0  0  0  0  0  0
  -13.2640   -8.8169   -7.5706 O   0  0  0  0  0  0  0  0  0  0  0  0
  -15.2771   -5.5009   -8.2201 H   0  0  0  0  0  0  0  0  0  0  0  0
  -14.2832   -3.3545   -8.8926 H   0  0  0  0  0  0  0  0  0  0  0  0
  -11.8399   -3.1634   -9.2111 H   0  0  0  0  0  0  0  0  0  0  0  0
  -10.3959   -5.1370   -8.8510 H   0  0  0  0  0  0  0  0  0  0  0  0
  -11.3841   -7.2855   -8.1776 H   0  0  0  0  0  0  0  0  0  0  0  0
  1  2  1  0
  2  3  2  0
  3  4  1  0
  4  5  2  0
  5  6  1  0
  6  7  1  0
  7  8  1  0
  8  9  2  0
  8 10  1  0
 10 11  1  0
 11 12  1  0
 12 13  1  0
 13 14  1  0
 14 15  2  0
 14 16  1  0
 16 17  1  0
 17 18  2  0
 18 19  1  0
 19 20  2  0
 20 21  1  0
 21 22  2  0
 22 23  1  0
 23 24  2  0
  6 25  2  0
  2 25  1  0
 13 23  1  0
 17 22  1  0
  1 26  1  0
  1 27  1  0
  1 28  1  0
  4 29  1  0
  5 30  1  0
  7 31  1  0
 10 32  1  0
 10 33  1  0
 11 34  1  0
 11 35  1  0
 12 36  1  0
 12 37  1  0
 16 38  1  0
 18 39  1  0
 19 40  1  0
 20 41  1  0
 21 42  1  0
 25 43  1  0
 44 49  1  0
 44 50  1  0
 44 45  2  0
 45 53  1  0
 45 46  1  0
 46 47  2  0
 46 54  1  0
 47 48  1  0
 47 55  1  0
 48 49  2  0
 48 56  1  0
 49 57  1  0
 50 51  1  0
 50 52  2  0
  3 51  1  0
M  END
>  <CHROM.1>  (30) 
26.90528258,37.87719743,166.66736792,-62.50261021,104.80548779,-16.93186781
-4.30841246,-1.13594729,-1.09322767,1.10604832,0.33796808

>  <Name>  (30) 
design_8

>  <RI>  (30) 
40019600.000000

>  <Rbt.Current_Directory>  (30) 
/pylon5/mc5pksp/smaltr/gateway_workdirs/PROCESS_93251df5-8da2-4fa9-b874-71853b29d1ad

>  <Rbt.Executable>  (30) 
rbdock ($Id: //depot/dev/client3/rdock/2013.1/src/exe/rbdock.cxx#4 $)

>  <Rbt.Library>  (30) 
libRbt.so (2013.1, Build901 2013/11/27)

>  <Rbt.Parameter_File>  (30) 
/home/smaltr/software/rDock_2013.1_src//data/scripts/dock.prm

>  <Rbt.Receptor>  (30) 
/pylon5/mc5pksp/smaltr/gateway_workdirs/PROCESS_93251df5-8da2-4fa9-b874-71853b29d1ad/output/SnD-Target-Sep02/cavity/pocket_docking.prm

>  <SCORE>  (30) 
-18.583100

>  <SCORE.INTER>  (30) 
-20.142300

>  <SCORE.INTER.CONST>  (30) 
1

>  <SCORE.INTER.POLAR>  (30) 
-1.412400

>  <SCORE.INTER.REPUL>  (30) 
0

>  <SCORE.INTER.ROT>  (30) 
5

>  <SCORE.INTER.VDW>  (30) 
-25.740100

>  <SCORE.INTER.norm>  (30) 
-0.805690

>  <SCORE.INTRA>  (30) 
1.559130

>  <SCORE.INTRA.DIHEDRAL>  (30) 
3.626300

>  <SCORE.INTRA.DIHEDRAL.0>  (30) 
3.606730

>  <SCORE.INTRA.POLAR>  (30) 
0

>  <SCORE.INTRA.POLAR.0>  (30) 
0

>  <SCORE.INTRA.REPUL>  (30) 
0

>  <SCORE.INTRA.REPUL.0>  (30) 
0

>  <SCORE.INTRA.VDW>  (30) 
-0.254023

>  <SCORE.INTRA.VDW.0>  (30) 
-0.668565

>  <SCORE.INTRA.norm>  (30) 
0.062365

>  <SCORE.RESTR>  (30) 
0

>  <SCORE.RESTR.CAVITY>  (30) 
0

>  <SCORE.RESTR.norm>  (30) 
0

>  <SCORE.SYSTEM>  (30) 
0

>  <SCORE.SYSTEM.CONST>  (30) 
0

>  <SCORE.SYSTEM.DIHEDRAL>  (30) 
0

>  <SCORE.SYSTEM.norm>  (30) 
0

>  <SCORE.heavy>  (30) 
25

>  <SCORE.norm>  (30) 
-0.743325

>  <SMILES>  (30) 
Cc1cccc(NC(=O)CCCn2c(=O)[nH]c3ccccc3c2=O)c1

>  <Cycle>  (30) 
228

>  <MolWeight>  (30) 
337.379000

>  <LogP>  (30) 
2.417120

>  <QED>  (30) 
0.749761

>  <SAS>  (30) 
1

$$$$
design_8
     RDKit          3D

 57 60  0  0  0  0  0  0  0  0999 V2000
  -14.3440   -9.8141   -5.8947 C   0  0  0  0  0  0  0  0  0  0  0  0
  -15.0916   -8.5589   -5.6025 C   0  0  0  0  0  0  0  0  0  0  0  0
  -15.4554   -7.7088   -6.6142 C   0  0  0  0  0  0  0  0  0  0  0  0
  -16.1419   -6.5683   -6.2866 C   0  0  0  0  0  0  0  0  0  0  0  0
  -16.4612   -6.2768   -4.9824 C   0  0  0  0  0  0  0  0  0  0  0  0
  -16.1048   -7.1249   -3.9180 C   0  0  0  0  0  0  0  0  0  0  0  0
  -16.4659   -6.7645   -2.6085 N   0  0  0  0  0  0  0  0  0  0  0  0
  -17.5479   -5.9717   -2.2413 C   0  0  0  0  0  0  0  0  0  0  0  0
  -18.3349   -5.4837   -3.0628 O   0  0  0  0  0  0  0  0  0  0  0  0
  -17.7934   -5.6815   -0.8035 C   0  0  0  0  0  0  0  0  0  0  0  0
  -16.5856   -5.4635    0.0162 C   0  0  0  0  0  0  0  0  0  0  0  0
  -16.7486   -4.8801    1.3696 C   0  0  0  0  0  0  0  0  0  0  0  0
  -17.2993   -3.5543    1.4110 N   0  0  0  0  0  0  0  0  0  0  0  0
  -18.5541   -3.3000    1.7754 C   0  0  0  0  0  0  0  0  0  0  0  0
  -19.3262   -4.2234    2.0833 O   0  0  0  0  0  0  0  0  0  0  0  0
  -19.0689   -2.0429    1.8333 N   0  0  0  0  0  0  0  0  0  0  0  0
  -18.2598   -1.0219    1.5033 C   0  0  0  0  0  0  0  0  0  0  0  0
  -18.7007    0.2894    1.5339 C   0  0  0  0  0  0  0  0  0  0  0  0
  -17.8508    1.3181    1.1905 C   0  0  0  0  0  0  0  0  0  0  0  0
  -16.5444    1.1060    0.8061 C   0  0  0  0  0  0  0  0  0  0  0  0
  -16.0926   -0.1941    0.7712 C   0  0  0  0  0  0  0  0  0  0  0  0
  -16.9534   -1.2371    1.1191 C   0  0  0  0  0  0  0  0  0  0  0  0
  -16.4785   -2.5075    1.0750 C   0  0  0  0  0  0  0  0  0  0  0  0
  -15.2797   -2.7761    0.7281 O   0  0  0  0  0  0  0  0  0  0  0  0
  -15.4196   -8.2574   -4.2724 C   0  0  0  0  0  0  0  0  0  0  0  0
  -13.3809   -9.7898   -5.3848 H   0  0  0  0  0  0  0  0  0  0  0  0
  -14.9192  -10.6705   -5.5429 H   0  0  0  0  0  0  0  0  0  0  0  0
  -14.1834   -9.9002   -6.9694 H   0  0  0  0  0  0  0  0  0  0  0  0
  -15.2057   -7.9335   -7.6511 H   0  0  0  0  0  0  0  0  0  0  0  0
  -16.4404   -5.8790   -7.0765 H   0  0  0  0  0  0  0  0  0  0  0  0
  -17.0081   -5.3592   -4.7655 H   0  0  0  0  0  0  0  0  0  0  0  0
  -15.8832   -7.1152   -1.8618 H   0  0  0  0  0  0  0  0  0  0  0  0
  -18.2739   -6.5713   -0.3968 H   0  0  0  0  0  0  0  0  0  0  0  0
  -18.4085   -4.7837   -0.7417 H   0  0  0  0  0  0  0  0  0  0  0  0
  -16.0208   -4.7108   -0.5338 H   0  0  0  0  0  0  0  0  0  0  0  0
  -16.0989   -6.4312    0.1380 H   0  0  0  0  0  0  0  0  0  0  0  0
  -15.7430   -4.7983    1.7821 H   0  0  0  0  0  0  0  0  0  0  0  0
  -17.4061   -5.5352    1.9411 H   0  0  0  0  0  0  0  0  0  0  0  0
  -20.0256   -1.8821    2.1144 H   0  0  0  0  0  0  0  0  0  0  0  0
  -19.7259    0.5097    1.8313 H   0  0  0  0  0  0  0  0  0  0  0  0
  -18.2268    2.3407    1.2242 H   0  0  0  0  0  0  0  0  0  0  0  0
  -15.8923    1.9377    0.5393 H   0  0  0  0  0  0  0  0  0  0  0  0
  -15.0663   -0.4085    0.4730 H   0  0  0  0  0  0  0  0  0  0  0  0
  -17.0990   -9.5839   -2.4454 C   0  0  0  0  0  0  0  0  0  0  0  0
  -17.1751   -8.4150   -1.6857 C   0  0  0  0  0  0  0  0  0  0  0  0
  -18.2123   -8.2243   -0.7815 C   0  0  0  0  0  0  0  0  0  0  0  0
  -19.1890   -9.1983   -0.6259 C   0  0  0  0  0  0  0  0  0  0  0  0
  -19.1248  -10.3650   -1.3761 C   0  0  0  0  0  0  0  0  0  0  0  0
  -18.0871  -10.5561   -2.2796 C   0  0  0  0  0  0  0  0  0  0  0  0
  -15.9937   -9.7872   -3.4084 C   0  0  0  0  0  0  0  0  0  0  0  0
  -15.1351   -8.9108   -3.5356 O   0  0  0  0  0  0  0  0  0  0  0  0
  -15.9519  -10.8301   -4.0663 O   0  0  0  0  0  0  0  0  0  0  0  0
  -16.4194   -7.6504   -1.7990 H   0  0  0  0  0  0  0  0  0  0  0  0
  -18.2573   -7.3142   -0.2002 H   0  0  0  0  0  0  0  0  0  0  0  0
  -19.9947   -9.0498    0.0770 H   0  0  0  0  0  0  0  0  0  0  0  0
  -19.8809  -11.1264   -1.2587 H   0  0  0  0  0  0  0  0  0  0  0  0
  -18.0460  -11.4675   -2.8597 H   0  0  0  0  0  0  0  0  0  0  0  0
  1  2  1  0
  2  3  2  0
  3  4  1  0
  4  5  2  0
  5  6  1  0
  6  7  1  0
  7  8  1  0
  8  9  2  0
  8 10  1  0
 10 11  1  0
 11 12  1  0
 12 13  1  0
 13 14  1  0
 14 15  2  0
 14 16  1  0
 16 17  1  0
 17 18  2  0
 18 19  1  0
 19 20  2  0
 20 21  1  0
 21 22  2  0
 22 23  1  0
 23 24  2  0
  6 25  2  0
  2 25  1  0
 13 23  1  0
 17 22  1  0
  1 26  1  0
  1 27  1  0
  1 28  1  0
  3 29  1  0
  4 30  1  0
  5 31  1  0
  7 32  1  0
 10 33  1  0
 10 34  1  0
 11 35  1  0
 11 36  1  0
 12 37  1  0
 12 38  1  0
 16 39  1  0
 18 40  1  0
 19 41  1  0
 20 42  1  0
 21 43  1  0
 44 49  1  0
 44 50  1  0
 44 45  2  0
 45 53  1  0
 45 46  1  0
 46 47  2  0
 46 54  1  0
 47 48  1  0
 47 55  1  0
 48 49  2  0
 48 56  1  0
 49 57  1  0
 50 51  1  0
 50 52  2  0
 25 51  1  0
M  END
>  <CHROM.1>  (31) 
26.90528258,37.87719743,166.66736792,-62.50261021,104.80548779,-16.93186781
-4.30841246,-1.13594729,-1.09322767,1.10604832,0.33796808

>  <Name>  (31) 
design_8

>  <RI>  (31) 
40019600.000000

>  <Rbt.Current_Directory>  (31) 
/pylon5/mc5pksp/smaltr/gateway_workdirs/PROCESS_93251df5-8da2-4fa9-b874-71853b29d1ad

>  <Rbt.Executable>  (31) 
rbdock ($Id: //depot/dev/client3/rdock/2013.1/src/exe/rbdock.cxx#4 $)

>  <Rbt.Library>  (31) 
libRbt.so (2013.1, Build901 2013/11/27)

>  <Rbt.Parameter_File>  (31) 
/home/smaltr/software/rDock_2013.1_src//data/scripts/dock.prm

>  <Rbt.Receptor>  (31) 
/pylon5/mc5pksp/smaltr/gateway_workdirs/PROCESS_93251df5-8da2-4fa9-b874-71853b29d1ad/output/SnD-Target-Sep02/cavity/pocket_docking.prm

>  <SCORE>  (31) 
-18.583100

>  <SCORE.INTER>  (31) 
-20.142300

>  <SCORE.INTER.CONST>  (31) 
1

>  <SCORE.INTER.POLAR>  (31) 
-1.412400

>  <SCORE.INTER.REPUL>  (31) 
0

>  <SCORE.INTER.ROT>  (31) 
5

>  <SCORE.INTER.VDW>  (31) 
-25.740100

>  <SCORE.INTER.norm>  (31) 
-0.805690

>  <SCORE.INTRA>  (31) 
1.559130

>  <SCORE.INTRA.DIHEDRAL>  (31) 
3.626300

>  <SCORE.INTRA.DIHEDRAL.0>  (31) 
3.606730

>  <SCORE.INTRA.POLAR>  (31) 
0

>  <SCORE.INTRA.POLAR.0>  (31) 
0

>  <SCORE.INTRA.REPUL>  (31) 
0

>  <SCORE.INTRA.REPUL.0>  (31) 
0

>  <SCORE.INTRA.VDW>  (31) 
-0.254023

>  <SCORE.INTRA.VDW.0>  (31) 
-0.668565

>  <SCORE.INTRA.norm>  (31) 
0.062365

>  <SCORE.RESTR>  (31) 
0

>  <SCORE.RESTR.CAVITY>  (31) 
0

>  <SCORE.RESTR.norm>  (31) 
0

>  <SCORE.SYSTEM>  (31) 
0

>  <SCORE.SYSTEM.CONST>  (31) 
0

>  <SCORE.SYSTEM.DIHEDRAL>  (31) 
0

>  <SCORE.SYSTEM.norm>  (31) 
0

>  <SCORE.heavy>  (31) 
25

>  <SCORE.norm>  (31) 
-0.743325

>  <SMILES>  (31) 
Cc1cccc(NC(=O)CCCn2c(=O)[nH]c3ccccc3c2=O)c1

>  <Cycle>  (31) 
228

>  <MolWeight>  (31) 
337.379000

>  <LogP>  (31) 
2.417120

>  <QED>  (31) 
0.749761

>  <SAS>  (31) 
1

$$$$
design_8
     RDKit          3D

 57 60  0  0  0  0  0  0  0  0999 V2000
  -14.3440   -9.8141   -5.8947 C   0  0  0  0  0  0  0  0  0  0  0  0
  -15.0916   -8.5589   -5.6025 C   0  0  0  0  0  0  0  0  0  0  0  0
  -15.4554   -7.7088   -6.6142 C   0  0  0  0  0  0  0  0  0  0  0  0
  -16.1419   -6.5683   -6.2866 C   0  0  0  0  0  0  0  0  0  0  0  0
  -16.4612   -6.2768   -4.9824 C   0  0  0  0  0  0  0  0  0  0  0  0
  -16.1048   -7.1249   -3.9180 C   0  0  0  0  0  0  0  0  0  0  0  0
  -16.4659   -6.7645   -2.6085 N   0  0  0  0  0  0  0  0  0  0  0  0
  -17.5479   -5.9717   -2.2413 C   0  0  0  0  0  0  0  0  0  0  0  0
  -18.3349   -5.4837   -3.0628 O   0  0  0  0  0  0  0  0  0  0  0  0
  -17.7934   -5.6815   -0.8035 C   0  0  0  0  0  0  0  0  0  0  0  0
  -16.5856   -5.4635    0.0162 C   0  0  0  0  0  0  0  0  0  0  0  0
  -16.7486   -4.8801    1.3696 C   0  0  0  0  0  0  0  0  0  0  0  0
  -17.2993   -3.5543    1.4110 N   0  0  0  0  0  0  0  0  0  0  0  0
  -18.5541   -3.3000    1.7754 C   0  0  0  0  0  0  0  0  0  0  0  0
  -19.3262   -4.2234    2.0833 O   0  0  0  0  0  0  0  0  0  0  0  0
  -19.0689   -2.0429    1.8333 N   0  0  0  0  0  0  0  0  0  0  0  0
  -18.2598   -1.0219    1.5033 C   0  0  0  0  0  0  0  0  0  0  0  0
  -18.7007    0.2894    1.5339 C   0  0  0  0  0  0  0  0  0  0  0  0
  -17.8508    1.3181    1.1905 C   0  0  0  0  0  0  0  0  0  0  0  0
  -16.5444    1.1060    0.8061 C   0  0  0  0  0  0  0  0  0  0  0  0
  -16.0926   -0.1941    0.7712 C   0  0  0  0  0  0  0  0  0  0  0  0
  -16.9534   -1.2371    1.1191 C   0  0  0  0  0  0  0  0  0  0  0  0
  -16.4785   -2.5075    1.0750 C   0  0  0  0  0  0  0  0  0  0  0  0
  -15.2797   -2.7761    0.7281 O   0  0  0  0  0  0  0  0  0  0  0  0
  -15.4196   -8.2574   -4.2724 C   0  0  0  0  0  0  0  0  0  0  0  0
  -13.3809   -9.7898   -5.3848 H   0  0  0  0  0  0  0  0  0  0  0  0
  -14.9192  -10.6705   -5.5429 H   0  0  0  0  0  0  0  0  0  0  0  0
  -14.1834   -9.9002   -6.9694 H   0  0  0  0  0  0  0  0  0  0  0  0
  -15.2057   -7.9335   -7.6511 H   0  0  0  0  0  0  0  0  0  0  0  0
  -16.4404   -5.8790   -7.0765 H   0  0  0  0  0  0  0  0  0  0  0  0
  -17.0081   -5.3592   -4.7655 H   0  0  0  0  0  0  0  0  0  0  0  0
  -15.8832   -7.1152   -1.8618 H   0  0  0  0  0  0  0  0  0  0  0  0
  -18.2739   -6.5713   -0.3968 H   0  0  0  0  0  0  0  0  0  0  0  0
  -18.4085   -4.7837   -0.7417 H   0  0  0  0  0  0  0  0  0  0  0  0
  -16.0208   -4.7108   -0.5338 H   0  0  0  0  0  0  0  0  0  0  0  0
  -16.0989   -6.4312    0.1380 H   0  0  0  0  0  0  0  0  0  0  0  0
  -15.7430   -4.7983    1.7821 H   0  0  0  0  0  0  0  0  0  0  0  0
  -17.4061   -5.5352    1.9411 H   0  0  0  0  0  0  0  0  0  0  0  0
  -20.0256   -1.8821    2.1144 H   0  0  0  0  0  0  0  0  0  0  0  0
  -19.7259    0.5097    1.8313 H   0  0  0  0  0  0  0  0  0  0  0  0
  -18.2268    2.3407    1.2242 H   0  0  0  0  0  0  0  0  0  0  0  0
  -15.0663   -0.4085    0.4730 H   0  0  0  0  0  0  0  0  0  0  0  0
  -15.1171   -8.9522   -3.4889 H   0  0  0  0  0  0  0  0  0  0  0  0
  -17.3181    3.7554    0.2584 C   0  0  0  0  0  0  0  0  0  0  0  0
  -17.7098    3.3630   -1.0230 C   0  0  0  0  0  0  0  0  0  0  0  0
  -18.5967    4.1370   -1.7605 C   0  0  0  0  0  0  0  0  0  0  0  0
  -19.1061    5.3127   -1.2266 C   0  0  0  0  0  0  0  0  0  0  0  0
  -18.7248    5.7135    0.0469 C   0  0  0  0  0  0  0  0  0  0  0  0
  -17.8371    4.9400    0.7841 C   0  0  0  0  0  0  0  0  0  0  0  0
  -16.3728    2.9309    1.0439 C   0  0  0  0  0  0  0  0  0  0  0  0
  -15.9312    1.8881    0.5552 O   0  0  0  0  0  0  0  0  0  0  0  0
  -16.0443    3.3024    2.1737 O   0  0  0  0  0  0  0  0  0  0  0  0
  -17.3187    2.4493   -1.4481 H   0  0  0  0  0  0  0  0  0  0  0  0
  -18.8902    3.8202   -2.7514 H   0  0  0  0  0  0  0  0  0  0  0  0
  -19.7952    5.9140   -1.8002 H   0  0  0  0  0  0  0  0  0  0  0  0
  -19.1167    6.6273    0.4671 H   0  0  0  0  0  0  0  0  0  0  0  0
  -17.5466    5.2599    1.7752 H   0  0  0  0  0  0  0  0  0  0  0  0
  1  2  1  0
  2  3  2  0
  3  4  1  0
  4  5  2  0
  5  6  1  0
  6  7  1  0
  7  8  1  0
  8  9  2  0
  8 10  1  0
 10 11  1  0
 11 12  1  0
 12 13  1  0
 13 14  1  0
 14 15  2  0
 14 16  1  0
 16 17  1  0
 17 18  2  0
 18 19  1  0
 19 20  2  0
 20 21  1  0
 21 22  2  0
 22 23  1  0
 23 24  2  0
  6 25  2  0
  2 25  1  0
 13 23  1  0
 17 22  1  0
  1 26  1  0
  1 27  1  0
  1 28  1  0
  3 29  1  0
  4 30  1  0
  5 31  1  0
  7 32  1  0
 10 33  1  0
 10 34  1  0
 11 35  1  0
 11 36  1  0
 12 37  1  0
 12 38  1  0
 16 39  1  0
 18 40  1  0
 19 41  1  0
 21 42  1  0
 25 43  1  0
 44 49  1  0
 44 50  1  0
 44 45  2  0
 45 53  1  0
 45 46  1  0
 46 47  2  0
 46 54  1  0
 47 48  1  0
 47 55  1  0
 48 49  2  0
 48 56  1  0
 49 57  1  0
 50 51  1  0
 50 52  2  0
 20 51  1  0
M  END
>  <CHROM.1>  (32) 
26.90528258,37.87719743,166.66736792,-62.50261021,104.80548779,-16.93186781
-4.30841246,-1.13594729,-1.09322767,1.10604832,0.33796808

>  <Name>  (32) 
design_8

>  <RI>  (32) 
40019600.000000

>  <Rbt.Current_Directory>  (32) 
/pylon5/mc5pksp/smaltr/gateway_workdirs/PROCESS_93251df5-8da2-4fa9-b874-71853b29d1ad

>  <Rbt.Executable>  (32) 
rbdock ($Id: //depot/dev/client3/rdock/2013.1/src/exe/rbdock.cxx#4 $)

>  <Rbt.Library>  (32) 
libRbt.so (2013.1, Build901 2013/11/27)

>  <Rbt.Parameter_File>  (32) 
/home/smaltr/software/rDock_2013.1_src//data/scripts/dock.prm

>  <Rbt.Receptor>  (32) 
/pylon5/mc5pksp/smaltr/gateway_workdirs/PROCESS_93251df5-8da2-4fa9-b874-71853b29d1ad/output/SnD-Target-Sep02/cavity/pocket_docking.prm

>  <SCORE>  (32) 
-18.583100

>  <SCORE.INTER>  (32) 
-20.142300

>  <SCORE.INTER.CONST>  (32) 
1

>  <SCORE.INTER.POLAR>  (32) 
-1.412400

>  <SCORE.INTER.REPUL>  (32) 
0

>  <SCORE.INTER.ROT>  (32) 
5

>  <SCORE.INTER.VDW>  (32) 
-25.740100

>  <SCORE.INTER.norm>  (32) 
-0.805690

>  <SCORE.INTRA>  (32) 
1.559130

>  <SCORE.INTRA.DIHEDRAL>  (32) 
3.626300

>  <SCORE.INTRA.DIHEDRAL.0>  (32) 
3.606730

>  <SCORE.INTRA.POLAR>  (32) 
0

>  <SCORE.INTRA.POLAR.0>  (32) 
0

>  <SCORE.INTRA.REPUL>  (32) 
0

>  <SCORE.INTRA.REPUL.0>  (32) 
0

>  <SCORE.INTRA.VDW>  (32) 
-0.254023

>  <SCORE.INTRA.VDW.0>  (32) 
-0.668565

>  <SCORE.INTRA.norm>  (32) 
0.062365

>  <SCORE.RESTR>  (32) 
0

>  <SCORE.RESTR.CAVITY>  (32) 
0

>  <SCORE.RESTR.norm>  (32) 
0

>  <SCORE.SYSTEM>  (32) 
0

>  <SCORE.SYSTEM.CONST>  (32) 
0

>  <SCORE.SYSTEM.DIHEDRAL>  (32) 
0

>  <SCORE.SYSTEM.norm>  (32) 
0

>  <SCORE.heavy>  (32) 
25

>  <SCORE.norm>  (32) 
-0.743325

>  <SMILES>  (32) 
Cc1cccc(NC(=O)CCCn2c(=O)[nH]c3ccccc3c2=O)c1

>  <Cycle>  (32) 
228

>  <MolWeight>  (32) 
337.379000

>  <LogP>  (32) 
2.417120

>  <QED>  (32) 
0.749761

>  <SAS>  (32) 
1

$$$$
design_8
     RDKit          3D

 57 60  0  0  0  0  0  0  0  0999 V2000
  -14.3440   -9.8141   -5.8947 C   0  0  0  0  0  0  0  0  0  0  0  0
  -15.0916   -8.5589   -5.6025 C   0  0  0  0  0  0  0  0  0  0  0  0
  -15.4554   -7.7088   -6.6142 C   0  0  0  0  0  0  0  0  0  0  0  0
  -16.1419   -6.5683   -6.2866 C   0  0  0  0  0  0  0  0  0  0  0  0
  -16.4612   -6.2768   -4.9824 C   0  0  0  0  0  0  0  0  0  0  0  0
  -16.1048   -7.1249   -3.9180 C   0  0  0  0  0  0  0  0  0  0  0  0
  -16.4659   -6.7645   -2.6085 N   0  0  0  0  0  0  0  0  0  0  0  0
  -17.5479   -5.9717   -2.2413 C   0  0  0  0  0  0  0  0  0  0  0  0
  -18.3349   -5.4837   -3.0628 O   0  0  0  0  0  0  0  0  0  0  0  0
  -17.7934   -5.6815   -0.8035 C   0  0  0  0  0  0  0  0  0  0  0  0
  -16.5856   -5.4635    0.0162 C   0  0  0  0  0  0  0  0  0  0  0  0
  -16.7486   -4.8801    1.3696 C   0  0  0  0  0  0  0  0  0  0  0  0
  -17.2993   -3.5543    1.4110 N   0  0  0  0  0  0  0  0  0  0  0  0
  -18.5541   -3.3000    1.7754 C   0  0  0  0  0  0  0  0  0  0  0  0
  -19.3262   -4.2234    2.0833 O   0  0  0  0  0  0  0  0  0  0  0  0
  -19.0689   -2.0429    1.8333 N   0  0  0  0  0  0  0  0  0  0  0  0
  -18.2598   -1.0219    1.5033 C   0  0  0  0  0  0  0  0  0  0  0  0
  -18.7007    0.2894    1.5339 C   0  0  0  0  0  0  0  0  0  0  0  0
  -17.8508    1.3181    1.1905 C   0  0  0  0  0  0  0  0  0  0  0  0
  -16.5444    1.1060    0.8061 C   0  0  0  0  0  0  0  0  0  0  0  0
  -16.0926   -0.1941    0.7712 C   0  0  0  0  0  0  0  0  0  0  0  0
  -16.9534   -1.2371    1.1191 C   0  0  0  0  0  0  0  0  0  0  0  0
  -16.4785   -2.5075    1.0750 C   0  0  0  0  0  0  0  0  0  0  0  0
  -15.2797   -2.7761    0.7281 O   0  0  0  0  0  0  0  0  0  0  0  0
  -15.4196   -8.2574   -4.2724 C   0  0  0  0  0  0  0  0  0  0  0  0
  -13.3809   -9.7898   -5.3848 H   0  0  0  0  0  0  0  0  0  0  0  0
  -14.9192  -10.6705   -5.5429 H   0  0  0  0  0  0  0  0  0  0  0  0
  -14.1834   -9.9002   -6.9694 H   0  0  0  0  0  0  0  0  0  0  0  0
  -15.2057   -7.9335   -7.6511 H   0  0  0  0  0  0  0  0  0  0  0  0
  -16.4404   -5.8790   -7.0765 H   0  0  0  0  0  0  0  0  0  0  0  0
  -17.0081   -5.3592   -4.7655 H   0  0  0  0  0  0  0  0  0  0  0  0
  -15.8832   -7.1152   -1.8618 H   0  0  0  0  0  0  0  0  0  0  0  0
  -18.2739   -6.5713   -0.3968 H   0  0  0  0  0  0  0  0  0  0  0  0
  -18.4085   -4.7837   -0.7417 H   0  0  0  0  0  0  0  0  0  0  0  0
  -16.0208   -4.7108   -0.5338 H   0  0  0  0  0  0  0  0  0  0  0  0
  -16.0989   -6.4312    0.1380 H   0  0  0  0  0  0  0  0  0  0  0  0
  -15.7430   -4.7983    1.7821 H   0  0  0  0  0  0  0  0  0  0  0  0
  -17.4061   -5.5352    1.9411 H   0  0  0  0  0  0  0  0  0  0  0  0
  -20.0256   -1.8821    2.1144 H   0  0  0  0  0  0  0  0  0  0  0  0
  -19.7259    0.5097    1.8313 H   0  0  0  0  0  0  0  0  0  0  0  0
  -15.8923    1.9377    0.5393 H   0  0  0  0  0  0  0  0  0  0  0  0
  -15.0663   -0.4085    0.4730 H   0  0  0  0  0  0  0  0  0  0  0  0
  -15.1171   -8.9522   -3.4889 H   0  0  0  0  0  0  0  0  0  0  0  0
  -19.9122    2.3106    2.8287 C   0  0  0  0  0  0  0  0  0  0  0  0
  -20.8534    1.7586    1.9576 C   0  0  0  0  0  0  0  0  0  0  0  0
  -22.1556    1.5222    2.3793 C   0  0  0  0  0  0  0  0  0  0  0  0
  -22.5346    1.8322    3.6783 C   0  0  0  0  0  0  0  0  0  0  0  0
  -21.6076    2.3811    4.5544 C   0  0  0  0  0  0  0  0  0  0  0  0
  -20.3055    2.6183    4.1323 C   0  0  0  0  0  0  0  0  0  0  0  0
  -18.5248    2.5627    2.3791 C   0  0  0  0  0  0  0  0  0  0  0  0
  -18.2044    2.2797    1.2222 O   0  0  0  0  0  0  0  0  0  0  0  0
  -17.7144    3.0515    3.1707 O   0  0  0  0  0  0  0  0  0  0  0  0
  -20.5686    1.5139    0.9439 H   0  0  0  0  0  0  0  0  0  0  0  0
  -22.8730    1.0948    1.6931 H   0  0  0  0  0  0  0  0  0  0  0  0
  -23.5467    1.6485    4.0055 H   0  0  0  0  0  0  0  0  0  0  0  0
  -21.8966    2.6251    5.5654 H   0  0  0  0  0  0  0  0  0  0  0  0
  -19.5908    3.0453    4.8220 H   0  0  0  0  0  0  0  0  0  0  0  0
  1  2  1  0
  2  3  2  0
  3  4  1  0
  4  5  2  0
  5  6  1  0
  6  7  1  0
  7  8  1  0
  8  9  2  0
  8 10  1  0
 10 11  1  0
 11 12  1  0
 12 13  1  0
 13 14  1  0
 14 15  2  0
 14 16  1  0
 16 17  1  0
 17 18  2  0
 18 19  1  0
 19 20  2  0
 20 21  1  0
 21 22  2  0
 22 23  1  0
 23 24  2  0
  6 25  2  0
  2 25  1  0
 13 23  1  0
 17 22  1  0
  1 26  1  0
  1 27  1  0
  1 28  1  0
  3 29  1  0
  4 30  1  0
  5 31  1  0
  7 32  1  0
 10 33  1  0
 10 34  1  0
 11 35  1  0
 11 36  1  0
 12 37  1  0
 12 38  1  0
 16 39  1  0
 18 40  1  0
 20 41  1  0
 21 42  1  0
 25 43  1  0
 44 49  1  0
 44 50  1  0
 44 45  2  0
 45 53  1  0
 45 46  1  0
 46 47  2  0
 46 54  1  0
 47 48  1  0
 47 55  1  0
 48 49  2  0
 48 56  1  0
 49 57  1  0
 50 51  1  0
 50 52  2  0
 19 51  1  0
M  END
>  <CHROM.1>  (33) 
26.90528258,37.87719743,166.66736792,-62.50261021,104.80548779,-16.93186781
-4.30841246,-1.13594729,-1.09322767,1.10604832,0.33796808

>  <Name>  (33) 
design_8

>  <RI>  (33) 
40019600.000000

>  <Rbt.Current_Directory>  (33) 
/pylon5/mc5pksp/smaltr/gateway_workdirs/PROCESS_93251df5-8da2-4fa9-b874-71853b29d1ad

>  <Rbt.Executable>  (33) 
rbdock ($Id: //depot/dev/client3/rdock/2013.1/src/exe/rbdock.cxx#4 $)

>  <Rbt.Library>  (33) 
libRbt.so (2013.1, Build901 2013/11/27)

>  <Rbt.Parameter_File>  (33) 
/home/smaltr/software/rDock_2013.1_src//data/scripts/dock.prm

>  <Rbt.Receptor>  (33) 
/pylon5/mc5pksp/smaltr/gateway_workdirs/PROCESS_93251df5-8da2-4fa9-b874-71853b29d1ad/output/SnD-Target-Sep02/cavity/pocket_docking.prm

>  <SCORE>  (33) 
-18.583100

>  <SCORE.INTER>  (33) 
-20.142300

>  <SCORE.INTER.CONST>  (33) 
1

>  <SCORE.INTER.POLAR>  (33) 
-1.412400

>  <SCORE.INTER.REPUL>  (33) 
0

>  <SCORE.INTER.ROT>  (33) 
5

>  <SCORE.INTER.VDW>  (33) 
-25.740100

>  <SCORE.INTER.norm>  (33) 
-0.805690

>  <SCORE.INTRA>  (33) 
1.559130

>  <SCORE.INTRA.DIHEDRAL>  (33) 
3.626300

>  <SCORE.INTRA.DIHEDRAL.0>  (33) 
3.606730

>  <SCORE.INTRA.POLAR>  (33) 
0

>  <SCORE.INTRA.POLAR.0>  (33) 
0

>  <SCORE.INTRA.REPUL>  (33) 
0

>  <SCORE.INTRA.REPUL.0>  (33) 
0

>  <SCORE.INTRA.VDW>  (33) 
-0.254023

>  <SCORE.INTRA.VDW.0>  (33) 
-0.668565

>  <SCORE.INTRA.norm>  (33) 
0.062365

>  <SCORE.RESTR>  (33) 
0

>  <SCORE.RESTR.CAVITY>  (33) 
0

>  <SCORE.RESTR.norm>  (33) 
0

>  <SCORE.SYSTEM>  (33) 
0

>  <SCORE.SYSTEM.CONST>  (33) 
0

>  <SCORE.SYSTEM.DIHEDRAL>  (33) 
0

>  <SCORE.SYSTEM.norm>  (33) 
0

>  <SCORE.heavy>  (33) 
25

>  <SCORE.norm>  (33) 
-0.743325

>  <SMILES>  (33) 
Cc1cccc(NC(=O)CCCn2c(=O)[nH]c3ccccc3c2=O)c1

>  <Cycle>  (33) 
228

>  <MolWeight>  (33) 
337.379000

>  <LogP>  (33) 
2.417120

>  <QED>  (33) 
0.749761

>  <SAS>  (33) 
1

$$$$
design_8
     RDKit          3D

 57 60  0  0  0  0  0  0  0  0999 V2000
  -14.3440   -9.8141   -5.8947 C   0  0  0  0  0  0  0  0  0  0  0  0
  -15.0916   -8.5589   -5.6025 C   0  0  0  0  0  0  0  0  0  0  0  0
  -15.4554   -7.7088   -6.6142 C   0  0  0  0  0  0  0  0  0  0  0  0
  -16.1419   -6.5683   -6.2866 C   0  0  0  0  0  0  0  0  0  0  0  0
  -16.4612   -6.2768   -4.9824 C   0  0  0  0  0  0  0  0  0  0  0  0
  -16.1048   -7.1249   -3.9180 C   0  0  0  0  0  0  0  0  0  0  0  0
  -16.4659   -6.7645   -2.6085 N   0  0  0  0  0  0  0  0  0  0  0  0
  -17.5479   -5.9717   -2.2413 C   0  0  0  0  0  0  0  0  0  0  0  0
  -18.3349   -5.4837   -3.0628 O   0  0  0  0  0  0  0  0  0  0  0  0
  -17.7934   -5.6815   -0.8035 C   0  0  0  0  0  0  0  0  0  0  0  0
  -16.5856   -5.4635    0.0162 C   0  0  0  0  0  0  0  0  0  0  0  0
  -16.7486   -4.8801    1.3696 C   0  0  0  0  0  0  0  0  0  0  0  0
  -17.2993   -3.5543    1.4110 N   0  0  0  0  0  0  0  0  0  0  0  0
  -18.5541   -3.3000    1.7754 C   0  0  0  0  0  0  0  0  0  0  0  0
  -19.3262   -4.2234    2.0833 O   0  0  0  0  0  0  0  0  0  0  0  0
  -19.0689   -2.0429    1.8333 N   0  0  0  0  0  0  0  0  0  0  0  0
  -18.2598   -1.0219    1.5033 C   0  0  0  0  0  0  0  0  0  0  0  0
  -18.7007    0.2894    1.5339 C   0  0  0  0  0  0  0  0  0  0  0  0
  -17.8508    1.3181    1.1905 C   0  0  0  0  0  0  0  0  0  0  0  0
  -16.5444    1.1060    0.8061 C   0  0  0  0  0  0  0  0  0  0  0  0
  -16.0926   -0.1941    0.7712 C   0  0  0  0  0  0  0  0  0  0  0  0
  -16.9534   -1.2371    1.1191 C   0  0  0  0  0  0  0  0  0  0  0  0
  -16.4785   -2.5075    1.0750 C   0  0  0  0  0  0  0  0  0  0  0  0
  -15.2797   -2.7761    0.7281 O   0  0  0  0  0  0  0  0  0  0  0  0
  -15.4196   -8.2574   -4.2724 C   0  0  0  0  0  0  0  0  0  0  0  0
  -13.3809   -9.7898   -5.3848 H   0  0  0  0  0  0  0  0  0  0  0  0
  -14.9192  -10.6705   -5.5429 H   0  0  0  0  0  0  0  0  0  0  0  0
  -14.1834   -9.9002   -6.9694 H   0  0  0  0  0  0  0  0  0  0  0  0
  -15.2057   -7.9335   -7.6511 H   0  0  0  0  0  0  0  0  0  0  0  0
  -16.4404   -5.8790   -7.0765 H   0  0  0  0  0  0  0  0  0  0  0  0
  -17.0081   -5.3592   -4.7655 H   0  0  0  0  0  0  0  0  0  0  0  0
  -15.8832   -7.1152   -1.8618 H   0  0  0  0  0  0  0  0  0  0  0  0
  -18.2739   -6.5713   -0.3968 H   0  0  0  0  0  0  0  0  0  0  0  0
  -18.4085   -4.7837   -0.7417 H   0  0  0  0  0  0  0  0  0  0  0  0
  -16.0208   -4.7108   -0.5338 H   0  0  0  0  0  0  0  0  0  0  0  0
  -16.0989   -6.4312    0.1380 H   0  0  0  0  0  0  0  0  0  0  0  0
  -15.7430   -4.7983    1.7821 H   0  0  0  0  0  0  0  0  0  0  0  0
  -17.4061   -5.5352    1.9411 H   0  0  0  0  0  0  0  0  0  0  0  0
  -20.0256   -1.8821    2.1144 H   0  0  0  0  0  0  0  0  0  0  0  0
  -18.2268    2.3407    1.2242 H   0  0  0  0  0  0  0  0  0  0  0  0
  -15.8923    1.9377    0.5393 H   0  0  0  0  0  0  0  0  0  0  0  0
  -15.0663   -0.4085    0.4730 H   0  0  0  0  0  0  0  0  0  0  0  0
  -15.1171   -8.9522   -3.4889 H   0  0  0  0  0  0  0  0  0  0  0  0
  -20.7135    1.4453   -0.0570 C   0  0  0  0  0  0  0  0  0  0  0  0
  -20.1462    2.7023    0.1605 C   0  0  0  0  0  0  0  0  0  0  0  0
  -20.4224    3.7615   -0.6947 C   0  0  0  0  0  0  0  0  0  0  0  0
  -21.2676    3.5782   -1.7805 C   0  0  0  0  0  0  0  0  0  0  0  0
  -21.8375    2.3326   -2.0080 C   0  0  0  0  0  0  0  0  0  0  0  0
  -21.5620    1.2737   -1.1521 C   0  0  0  0  0  0  0  0  0  0  0  0
  -20.4194    0.3169    0.8546 C   0  0  0  0  0  0  0  0  0  0  0  0
  -19.6648    0.4966    1.8136 O   0  0  0  0  0  0  0  0  0  0  0  0
  -20.9350   -0.7829    0.6379 O   0  0  0  0  0  0  0  0  0  0  0  0
  -19.4869    2.8557    1.0034 H   0  0  0  0  0  0  0  0  0  0  0  0
  -19.9760    4.7289   -0.5129 H   0  0  0  0  0  0  0  0  0  0  0  0
  -21.4821    4.4016   -2.4448 H   0  0  0  0  0  0  0  0  0  0  0  0
  -22.4963    2.1842   -2.8501 H   0  0  0  0  0  0  0  0  0  0  0  0
  -22.0100    0.3073   -1.3378 H   0  0  0  0  0  0  0  0  0  0  0  0
  1  2  1  0
  2  3  2  0
  3  4  1  0
  4  5  2  0
  5  6  1  0
  6  7  1  0
  7  8  1  0
  8  9  2  0
  8 10  1  0
 10 11  1  0
 11 12  1  0
 12 13  1  0
 13 14  1  0
 14 15  2  0
 14 16  1  0
 16 17  1  0
 17 18  2  0
 18 19  1  0
 19 20  2  0
 20 21  1  0
 21 22  2  0
 22 23  1  0
 23 24  2  0
  6 25  2  0
  2 25  1  0
 13 23  1  0
 17 22  1  0
  1 26  1  0
  1 27  1  0
  1 28  1  0
  3 29  1  0
  4 30  1  0
  5 31  1  0
  7 32  1  0
 10 33  1  0
 10 34  1  0
 11 35  1  0
 11 36  1  0
 12 37  1  0
 12 38  1  0
 16 39  1  0
 19 40  1  0
 20 41  1  0
 21 42  1  0
 25 43  1  0
 44 49  1  0
 44 50  1  0
 44 45  2  0
 45 53  1  0
 45 46  1  0
 46 47  2  0
 46 54  1  0
 47 48  1  0
 47 55  1  0
 48 49  2  0
 48 56  1  0
 49 57  1  0
 50 51  1  0
 50 52  2  0
 18 51  1  0
M  END
>  <CHROM.1>  (34) 
26.90528258,37.87719743,166.66736792,-62.50261021,104.80548779,-16.93186781
-4.30841246,-1.13594729,-1.09322767,1.10604832,0.33796808

>  <Name>  (34) 
design_8

>  <RI>  (34) 
40019600.000000

>  <Rbt.Current_Directory>  (34) 
/pylon5/mc5pksp/smaltr/gateway_workdirs/PROCESS_93251df5-8da2-4fa9-b874-71853b29d1ad

>  <Rbt.Executable>  (34) 
rbdock ($Id: //depot/dev/client3/rdock/2013.1/src/exe/rbdock.cxx#4 $)

>  <Rbt.Library>  (34) 
libRbt.so (2013.1, Build901 2013/11/27)

>  <Rbt.Parameter_File>  (34) 
/home/smaltr/software/rDock_2013.1_src//data/scripts/dock.prm

>  <Rbt.Receptor>  (34) 
/pylon5/mc5pksp/smaltr/gateway_workdirs/PROCESS_93251df5-8da2-4fa9-b874-71853b29d1ad/output/SnD-Target-Sep02/cavity/pocket_docking.prm

>  <SCORE>  (34) 
-18.583100

>  <SCORE.INTER>  (34) 
-20.142300

>  <SCORE.INTER.CONST>  (34) 
1

>  <SCORE.INTER.POLAR>  (34) 
-1.412400

>  <SCORE.INTER.REPUL>  (34) 
0

>  <SCORE.INTER.ROT>  (34) 
5

>  <SCORE.INTER.VDW>  (34) 
-25.740100

>  <SCORE.INTER.norm>  (34) 
-0.805690

>  <SCORE.INTRA>  (34) 
1.559130

>  <SCORE.INTRA.DIHEDRAL>  (34) 
3.626300

>  <SCORE.INTRA.DIHEDRAL.0>  (34) 
3.606730

>  <SCORE.INTRA.POLAR>  (34) 
0

>  <SCORE.INTRA.POLAR.0>  (34) 
0

>  <SCORE.INTRA.REPUL>  (34) 
0

>  <SCORE.INTRA.REPUL.0>  (34) 
0

>  <SCORE.INTRA.VDW>  (34) 
-0.254023

>  <SCORE.INTRA.VDW.0>  (34) 
-0.668565

>  <SCORE.INTRA.norm>  (34) 
0.062365

>  <SCORE.RESTR>  (34) 
0

>  <SCORE.RESTR.CAVITY>  (34) 
0

>  <SCORE.RESTR.norm>  (34) 
0

>  <SCORE.SYSTEM>  (34) 
0

>  <SCORE.SYSTEM.CONST>  (34) 
0

>  <SCORE.SYSTEM.DIHEDRAL>  (34) 
0

>  <SCORE.SYSTEM.norm>  (34) 
0

>  <SCORE.heavy>  (34) 
25

>  <SCORE.norm>  (34) 
-0.743325

>  <SMILES>  (34) 
Cc1cccc(NC(=O)CCCn2c(=O)[nH]c3ccccc3c2=O)c1

>  <Cycle>  (34) 
228

>  <MolWeight>  (34) 
337.379000

>  <LogP>  (34) 
2.417120

>  <QED>  (34) 
0.749761

>  <SAS>  (34) 
1

$$$$
design_8
     RDKit          3D

 55 58  0  0  0  0  0  0  0  0999 V2000
  -14.3440   -9.8141   -5.8947 C   0  0  0  0  0  0  0  0  0  0  0  0
  -15.0916   -8.5589   -5.6025 C   0  0  0  0  0  0  0  0  0  0  0  0
  -15.4554   -7.7088   -6.6142 C   0  0  0  0  0  0  0  0  0  0  0  0
  -16.1419   -6.5683   -6.2866 C   0  0  0  0  0  0  0  0  0  0  0  0
  -16.4612   -6.2768   -4.9824 C   0  0  0  0  0  0  0  0  0  0  0  0
  -16.1048   -7.1249   -3.9180 C   0  0  0  0  0  0  0  0  0  0  0  0
  -16.4659   -6.7645   -2.6085 N   0  0  0  0  0  0  0  0  0  0  0  0
  -17.5479   -5.9717   -2.2413 C   0  0  0  0  0  0  0  0  0  0  0  0
  -18.3349   -5.4837   -3.0628 O   0  0  0  0  0  0  0  0  0  0  0  0
  -17.7934   -5.6815   -0.8035 C   0  0  0  0  0  0  0  0  0  0  0  0
  -16.5856   -5.4635    0.0162 C   0  0  0  0  0  0  0  0  0  0  0  0
  -16.7486   -4.8801    1.3696 C   0  0  0  0  0  0  0  0  0  0  0  0
  -17.2993   -3.5543    1.4110 N   0  0  0  0  0  0  0  0  0  0  0  0
  -18.5541   -3.3000    1.7754 C   0  0  0  0  0  0  0  0  0  0  0  0
  -19.3262   -4.2234    2.0833 O   0  0  0  0  0  0  0  0  0  0  0  0
  -19.0689   -2.0429    1.8333 N   0  0  0  0  0  0  0  0  0  0  0  0
  -18.2598   -1.0219    1.5033 C   0  0  0  0  0  0  0  0  0  0  0  0
  -18.7007    0.2894    1.5339 C   0  0  0  0  0  0  0  0  0  0  0  0
  -17.8508    1.3181    1.1905 C   0  0  0  0  0  0  0  0  0  0  0  0
  -16.5444    1.1060    0.8061 C   0  0  0  0  0  0  0  0  0  0  0  0
  -16.0926   -0.1941    0.7712 C   0  0  0  0  0  0  0  0  0  0  0  0
  -16.9534   -1.2371    1.1191 C   0  0  0  0  0  0  0  0  0  0  0  0
  -16.4785   -2.5075    1.0750 C   0  0  0  0  0  0  0  0  0  0  0  0
  -15.2797   -2.7761    0.7281 O   0  0  0  0  0  0  0  0  0  0  0  0
  -15.4196   -8.2574   -4.2724 C   0  0  0  0  0  0  0  0  0  0  0  0
  -13.3809   -9.7898   -5.3848 H   0  0  0  0  0  0  0  0  0  0  0  0
  -14.9192  -10.6705   -5.5429 H   0  0  0  0  0  0  0  0  0  0  0  0
  -14.1834   -9.9002   -6.9694 H   0  0  0  0  0  0  0  0  0  0  0  0
  -15.2057   -7.9335   -7.6511 H   0  0  0  0  0  0  0  0  0  0  0  0
  -16.4404   -5.8790   -7.0765 H   0  0  0  0  0  0  0  0  0  0  0  0
  -17.0081   -5.3592   -4.7655 H   0  0  0  0  0  0  0  0  0  0  0  0
  -18.2739   -6.5713   -0.3968 H   0  0  0  0  0  0  0  0  0  0  0  0
  -18.4085   -4.7837   -0.7417 H   0  0  0  0  0  0  0  0  0  0  0  0
  -16.0208   -4.7108   -0.5338 H   0  0  0  0  0  0  0  0  0  0  0  0
  -16.0989   -6.4312    0.1380 H   0  0  0  0  0  0  0  0  0  0  0  0
  -15.7430   -4.7983    1.7821 H   0  0  0  0  0  0  0  0  0  0  0  0
  -17.4061   -5.5352    1.9411 H   0  0  0  0  0  0  0  0  0  0  0  0
  -20.0256   -1.8821    2.1144 H   0  0  0  0  0  0  0  0  0  0  0  0
  -19.7259    0.5097    1.8313 H   0  0  0  0  0  0  0  0  0  0  0  0
  -18.2268    2.3407    1.2242 H   0  0  0  0  0  0  0  0  0  0  0  0
  -15.8923    1.9377    0.5393 H   0  0  0  0  0  0  0  0  0  0  0  0
  -15.0663   -0.4085    0.4730 H   0  0  0  0  0  0  0  0  0  0  0  0
  -15.1171   -8.9522   -3.4889 H   0  0  0  0  0  0  0  0  0  0  0  0
  -17.5323   -6.9902    1.8334 N   0  0  0  0  0  0  0  0  0  0  0  0
  -18.2275   -6.5459    0.7658 C   0  0  0  0  0  0  0  0  0  0  0  0
  -17.6174   -6.6148   -0.4442 N   0  0  0  0  0  0  0  0  0  0  0  0
  -16.3728   -7.0995   -0.6210 C   0  0  0  0  0  0  0  0  0  0  0  0
  -15.5853   -7.5936    0.5231 C   0  0  0  0  0  0  0  0  0  0  0  0
  -16.1639   -7.5362    1.7322 C   0  0  0  0  0  0  0  0  0  0  0  0
  -19.3560   -6.1032    0.9042 O   0  0  0  0  0  0  0  0  0  0  0  0
  -15.8863   -7.1133   -1.8657 N   0  0  0  0  0  0  0  0  0  0  0  0
  -18.0323   -6.9123    2.6920 H   0  0  0  0  0  0  0  0  0  0  0  0
  -14.9717   -7.4573   -2.0717 H   0  0  0  0  0  0  0  0  0  0  0  0
  -14.5936   -7.9784    0.3802 H   0  0  0  0  0  0  0  0  0  0  0  0
  -15.6363   -7.8829    2.6038 H   0  0  0  0  0  0  0  0  0  0  0  0
  1  2  1  0
  2  3  2  0
  3  4  1  0
  4  5  2  0
  5  6  1  0
  6  7  1  0
  7  8  1  0
  8  9  2  0
  8 10  1  0
 10 11  1  0
 11 12  1  0
 12 13  1  0
 13 14  1  0
 14 15  2  0
 14 16  1  0
 16 17  1  0
 17 18  2  0
 18 19  1  0
 19 20  2  0
 20 21  1  0
 21 22  2  0
 22 23  1  0
 23 24  2  0
  6 25  2  0
  2 25  1  0
 13 23  1  0
 17 22  1  0
  1 26  1  0
  1 27  1  0
  1 28  1  0
  3 29  1  0
  4 30  1  0
  5 31  1  0
 10 32  1  0
 10 33  1  0
 11 34  1  0
 11 35  1  0
 12 36  1  0
 12 37  1  0
 16 38  1  0
 18 39  1  0
 19 40  1  0
 20 41  1  0
 21 42  1  0
 25 43  1  0
 44 45  1  0
 44 52  1  0
 45 50  2  0
 45 46  1  0
 46 47  2  0
 47 48  1  0
 47 51  1  0
 48 49  2  0
 48 54  1  0
 44 49  1  0
 49 55  1  0
 51 53  1  0
  7 51  1  0
M  END
>  <CHROM.1>  (35) 
26.90528258,37.87719743,166.66736792,-62.50261021,104.80548779,-16.93186781
-4.30841246,-1.13594729,-1.09322767,1.10604832,0.33796808

>  <Name>  (35) 
design_8

>  <RI>  (35) 
40019600.000000

>  <Rbt.Current_Directory>  (35) 
/pylon5/mc5pksp/smaltr/gateway_workdirs/PROCESS_93251df5-8da2-4fa9-b874-71853b29d1ad

>  <Rbt.Executable>  (35) 
rbdock ($Id: //depot/dev/client3/rdock/2013.1/src/exe/rbdock.cxx#4 $)

>  <Rbt.Library>  (35) 
libRbt.so (2013.1, Build901 2013/11/27)

>  <Rbt.Parameter_File>  (35) 
/home/smaltr/software/rDock_2013.1_src//data/scripts/dock.prm

>  <Rbt.Receptor>  (35) 
/pylon5/mc5pksp/smaltr/gateway_workdirs/PROCESS_93251df5-8da2-4fa9-b874-71853b29d1ad/output/SnD-Target-Sep02/cavity/pocket_docking.prm

>  <SCORE>  (35) 
-18.583100

>  <SCORE.INTER>  (35) 
-20.142300

>  <SCORE.INTER.CONST>  (35) 
1

>  <SCORE.INTER.POLAR>  (35) 
-1.412400

>  <SCORE.INTER.REPUL>  (35) 
0

>  <SCORE.INTER.ROT>  (35) 
5

>  <SCORE.INTER.VDW>  (35) 
-25.740100

>  <SCORE.INTER.norm>  (35) 
-0.805690

>  <SCORE.INTRA>  (35) 
1.559130

>  <SCORE.INTRA.DIHEDRAL>  (35) 
3.626300

>  <SCORE.INTRA.DIHEDRAL.0>  (35) 
3.606730

>  <SCORE.INTRA.POLAR>  (35) 
0

>  <SCORE.INTRA.POLAR.0>  (35) 
0

>  <SCORE.INTRA.REPUL>  (35) 
0

>  <SCORE.INTRA.REPUL.0>  (35) 
0

>  <SCORE.INTRA.VDW>  (35) 
-0.254023

>  <SCORE.INTRA.VDW.0>  (35) 
-0.668565

>  <SCORE.INTRA.norm>  (35) 
0.062365

>  <SCORE.RESTR>  (35) 
0

>  <SCORE.RESTR.CAVITY>  (35) 
0

>  <SCORE.RESTR.norm>  (35) 
0

>  <SCORE.SYSTEM>  (35) 
0

>  <SCORE.SYSTEM.CONST>  (35) 
0

>  <SCORE.SYSTEM.DIHEDRAL>  (35) 
0

>  <SCORE.SYSTEM.norm>  (35) 
0

>  <SCORE.heavy>  (35) 
25

>  <SCORE.norm>  (35) 
-0.743325

>  <SMILES>  (35) 
Cc1cccc(NC(=O)CCCn2c(=O)[nH]c3ccccc3c2=O)c1

>  <Cycle>  (35) 
228

>  <MolWeight>  (35) 
337.379000

>  <LogP>  (35) 
2.417120

>  <QED>  (35) 
0.749761

>  <SAS>  (35) 
1.6654826637992057

$$$$
design_8
     RDKit          3D

 55 58  0  0  0  0  0  0  0  0999 V2000
  -14.3440   -9.8141   -5.8947 C   0  0  0  0  0  0  0  0  0  0  0  0
  -15.0916   -8.5589   -5.6025 C   0  0  0  0  0  0  0  0  0  0  0  0
  -15.4554   -7.7088   -6.6142 C   0  0  0  0  0  0  0  0  0  0  0  0
  -16.1419   -6.5683   -6.2866 C   0  0  0  0  0  0  0  0  0  0  0  0
  -16.4612   -6.2768   -4.9824 C   0  0  0  0  0  0  0  0  0  0  0  0
  -16.1048   -7.1249   -3.9180 C   0  0  0  0  0  0  0  0  0  0  0  0
  -16.4659   -6.7645   -2.6085 N   0  0  0  0  0  0  0  0  0  0  0  0
  -17.5479   -5.9717   -2.2413 C   0  0  0  0  0  0  0  0  0  0  0  0
  -18.3349   -5.4837   -3.0628 O   0  0  0  0  0  0  0  0  0  0  0  0
  -17.7934   -5.6815   -0.8035 C   0  0  0  0  0  0  0  0  0  0  0  0
  -16.5856   -5.4635    0.0162 C   0  0  0  0  0  0  0  0  0  0  0  0
  -16.7486   -4.8801    1.3696 C   0  0  0  0  0  0  0  0  0  0  0  0
  -17.2993   -3.5543    1.4110 N   0  0  0  0  0  0  0  0  0  0  0  0
  -18.5541   -3.3000    1.7754 C   0  0  0  0  0  0  0  0  0  0  0  0
  -19.3262   -4.2234    2.0833 O   0  0  0  0  0  0  0  0  0  0  0  0
  -19.0689   -2.0429    1.8333 N   0  0  0  0  0  0  0  0  0  0  0  0
  -18.2598   -1.0219    1.5033 C   0  0  0  0  0  0  0  0  0  0  0  0
  -18.7007    0.2894    1.5339 C   0  0  0  0  0  0  0  0  0  0  0  0
  -17.8508    1.3181    1.1905 C   0  0  0  0  0  0  0  0  0  0  0  0
  -16.5444    1.1060    0.8061 C   0  0  0  0  0  0  0  0  0  0  0  0
  -16.0926   -0.1941    0.7712 C   0  0  0  0  0  0  0  0  0  0  0  0
  -16.9534   -1.2371    1.1191 C   0  0  0  0  0  0  0  0  0  0  0  0
  -16.4785   -2.5075    1.0750 C   0  0  0  0  0  0  0  0  0  0  0  0
  -15.2797   -2.7761    0.7281 O   0  0  0  0  0  0  0  0  0  0  0  0
  -15.4196   -8.2574   -4.2724 C   0  0  0  0  0  0  0  0  0  0  0  0
  -13.3809   -9.7898   -5.3848 H   0  0  0  0  0  0  0  0  0  0  0  0
  -14.9192  -10.6705   -5.5429 H   0  0  0  0  0  0  0  0  0  0  0  0
  -14.1834   -9.9002   -6.9694 H   0  0  0  0  0  0  0  0  0  0  0  0
  -15.2057   -7.9335   -7.6511 H   0  0  0  0  0  0  0  0  0  0  0  0
  -16.4404   -5.8790   -7.0765 H   0  0  0  0  0  0  0  0  0  0  0  0
  -17.0081   -5.3592   -4.7655 H   0  0  0  0  0  0  0  0  0  0  0  0
  -15.8832   -7.1152   -1.8618 H   0  0  0  0  0  0  0  0  0  0  0  0
  -18.2739   -6.5713   -0.3968 H   0  0  0  0  0  0  0  0  0  0  0  0
  -18.4085   -4.7837   -0.7417 H   0  0  0  0  0  0  0  0  0  0  0  0
  -16.0208   -4.7108   -0.5338 H   0  0  0  0  0  0  0  0  0  0  0  0
  -16.0989   -6.4312    0.1380 H   0  0  0  0  0  0  0  0  0  0  0  0
  -15.7430   -4.7983    1.7821 H   0  0  0  0  0  0  0  0  0  0  0  0
  -17.4061   -5.5352    1.9411 H   0  0  0  0  0  0  0  0  0  0  0  0
  -19.7259    0.5097    1.8313 H   0  0  0  0  0  0  0  0  0  0  0  0
  -18.2268    2.3407    1.2242 H   0  0  0  0  0  0  0  0  0  0  0  0
  -15.8923    1.9377    0.5393 H   0  0  0  0  0  0  0  0  0  0  0  0
  -15.0663   -0.4085    0.4730 H   0  0  0  0  0  0  0  0  0  0  0  0
  -15.1171   -8.9522   -3.4889 H   0  0  0  0  0  0  0  0  0  0  0  0
  -22.6538   -1.3166   -0.9125 N   0  0  0  0  0  0  0  0  0  0  0  0
  -21.3503   -1.5399   -1.1799 C   0  0  0  0  0  0  0  0  0  0  0  0
  -20.5219   -1.7208   -0.1206 N   0  0  0  0  0  0  0  0  0  0  0  0
  -20.9379   -1.6889    1.1605 C   0  0  0  0  0  0  0  0  0  0  0  0
  -22.3548   -1.4479    1.4885 C   0  0  0  0  0  0  0  0  0  0  0  0
  -23.1964   -1.2644    0.4599 C   0  0  0  0  0  0  0  0  0  0  0  0
  -20.9531   -1.5728   -2.3330 O   0  0  0  0  0  0  0  0  0  0  0  0
  -20.0205   -1.8830    2.1129 N   0  0  0  0  0  0  0  0  0  0  0  0
  -23.2098   -1.1903   -1.7300 H   0  0  0  0  0  0  0  0  0  0  0  0
  -20.2559   -1.8721    3.0833 H   0  0  0  0  0  0  0  0  0  0  0  0
  -22.6839   -1.4218    2.5098 H   0  0  0  0  0  0  0  0  0  0  0  0
  -24.2422   -1.0844    0.6393 H   0  0  0  0  0  0  0  0  0  0  0  0
  1  2  1  0
  2  3  2  0
  3  4  1  0
  4  5  2  0
  5  6  1  0
  6  7  1  0
  7  8  1  0
  8  9  2  0
  8 10  1  0
 10 11  1  0
 11 12  1  0
 12 13  1  0
 13 14  1  0
 14 15  2  0
 14 16  1  0
 16 17  1  0
 17 18  2  0
 18 19  1  0
 19 20  2  0
 20 21  1  0
 21 22  2  0
 22 23  1  0
 23 24  2  0
  6 25  2  0
  2 25  1  0
 13 23  1  0
 17 22  1  0
  1 26  1  0
  1 27  1  0
  1 28  1  0
  3 29  1  0
  4 30  1  0
  5 31  1  0
  7 32  1  0
 10 33  1  0
 10 34  1  0
 11 35  1  0
 11 36  1  0
 12 37  1  0
 12 38  1  0
 18 39  1  0
 19 40  1  0
 20 41  1  0
 21 42  1  0
 25 43  1  0
 44 45  1  0
 44 52  1  0
 45 50  2  0
 45 46  1  0
 46 47  2  0
 47 48  1  0
 47 51  1  0
 48 49  2  0
 48 54  1  0
 44 49  1  0
 49 55  1  0
 51 53  1  0
 16 51  1  0
M  END
>  <CHROM.1>  (36) 
26.90528258,37.87719743,166.66736792,-62.50261021,104.80548779,-16.93186781
-4.30841246,-1.13594729,-1.09322767,1.10604832,0.33796808

>  <Name>  (36) 
design_8

>  <RI>  (36) 
40019600.000000

>  <Rbt.Current_Directory>  (36) 
/pylon5/mc5pksp/smaltr/gateway_workdirs/PROCESS_93251df5-8da2-4fa9-b874-71853b29d1ad

>  <Rbt.Executable>  (36) 
rbdock ($Id: //depot/dev/client3/rdock/2013.1/src/exe/rbdock.cxx#4 $)

>  <Rbt.Library>  (36) 
libRbt.so (2013.1, Build901 2013/11/27)

>  <Rbt.Parameter_File>  (36) 
/home/smaltr/software/rDock_2013.1_src//data/scripts/dock.prm

>  <Rbt.Receptor>  (36) 
/pylon5/mc5pksp/smaltr/gateway_workdirs/PROCESS_93251df5-8da2-4fa9-b874-71853b29d1ad/output/SnD-Target-Sep02/cavity/pocket_docking.prm

>  <SCORE>  (36) 
-18.583100

>  <SCORE.INTER>  (36) 
-20.142300

>  <SCORE.INTER.CONST>  (36) 
1

>  <SCORE.INTER.POLAR>  (36) 
-1.412400

>  <SCORE.INTER.REPUL>  (36) 
0

>  <SCORE.INTER.ROT>  (36) 
5

>  <SCORE.INTER.VDW>  (36) 
-25.740100

>  <SCORE.INTER.norm>  (36) 
-0.805690

>  <SCORE.INTRA>  (36) 
1.559130

>  <SCORE.INTRA.DIHEDRAL>  (36) 
3.626300

>  <SCORE.INTRA.DIHEDRAL.0>  (36) 
3.606730

>  <SCORE.INTRA.POLAR>  (36) 
0

>  <SCORE.INTRA.POLAR.0>  (36) 
0

>  <SCORE.INTRA.REPUL>  (36) 
0

>  <SCORE.INTRA.REPUL.0>  (36) 
0

>  <SCORE.INTRA.VDW>  (36) 
-0.254023

>  <SCORE.INTRA.VDW.0>  (36) 
-0.668565

>  <SCORE.INTRA.norm>  (36) 
0.062365

>  <SCORE.RESTR>  (36) 
0

>  <SCORE.RESTR.CAVITY>  (36) 
0

>  <SCORE.RESTR.norm>  (36) 
0

>  <SCORE.SYSTEM>  (36) 
0

>  <SCORE.SYSTEM.CONST>  (36) 
0

>  <SCORE.SYSTEM.DIHEDRAL>  (36) 
0

>  <SCORE.SYSTEM.norm>  (36) 
0

>  <SCORE.heavy>  (36) 
25

>  <SCORE.norm>  (36) 
-0.743325

>  <SMILES>  (36) 
Cc1cccc(NC(=O)CCCn2c(=O)[nH]c3ccccc3c2=O)c1

>  <Cycle>  (36) 
228

>  <MolWeight>  (36) 
337.379000

>  <LogP>  (36) 
2.417120

>  <QED>  (36) 
0.749761

>  <SAS>  (36) 
1

$$$$
design_8
     RDKit          3D

 53 56  0  0  0  0  0  0  0  0999 V2000
  -14.3440   -9.8141   -5.8947 C   0  0  0  0  0  0  0  0  0  0  0  0
  -15.0916   -8.5589   -5.6025 C   0  0  0  0  0  0  0  0  0  0  0  0
  -15.4554   -7.7088   -6.6142 C   0  0  0  0  0  0  0  0  0  0  0  0
  -16.1419   -6.5683   -6.2866 C   0  0  0  0  0  0  0  0  0  0  0  0
  -16.4612   -6.2768   -4.9824 C   0  0  0  0  0  0  0  0  0  0  0  0
  -16.1048   -7.1249   -3.9180 C   0  0  0  0  0  0  0  0  0  0  0  0
  -16.4659   -6.7645   -2.6085 N   0  0  0  0  0  0  0  0  0  0  0  0
  -17.5479   -5.9717   -2.2413 C   0  0  0  0  0  0  0  0  0  0  0  0
  -18.3349   -5.4837   -3.0628 O   0  0  0  0  0  0  0  0  0  0  0  0
  -17.7934   -5.6815   -0.8035 C   0  0  0  0  0  0  0  0  0  0  0  0
  -16.5856   -5.4635    0.0162 C   0  0  0  0  0  0  0  0  0  0  0  0
  -16.7486   -4.8801    1.3696 C   0  0  0  0  0  0  0  0  0  0  0  0
  -17.2993   -3.5543    1.4110 N   0  0  0  0  0  0  0  0  0  0  0  0
  -18.5541   -3.3000    1.7754 C   0  0  0  0  0  0  0  0  0  0  0  0
  -19.3262   -4.2234    2.0833 O   0  0  0  0  0  0  0  0  0  0  0  0
  -19.0689   -2.0429    1.8333 N   0  0  0  0  0  0  0  0  0  0  0  0
  -18.2598   -1.0219    1.5033 C   0  0  0  0  0  0  0  0  0  0  0  0
  -18.7007    0.2894    1.5339 C   0  0  0  0  0  0  0  0  0  0  0  0
  -17.8508    1.3181    1.1905 C   0  0  0  0  0  0  0  0  0  0  0  0
  -16.5444    1.1060    0.8061 C   0  0  0  0  0  0  0  0  0  0  0  0
  -16.0926   -0.1941    0.7712 C   0  0  0  0  0  0  0  0  0  0  0  0
  -16.9534   -1.2371    1.1191 C   0  0  0  0  0  0  0  0  0  0  0  0
  -16.4785   -2.5075    1.0750 C   0  0  0  0  0  0  0  0  0  0  0  0
  -15.2797   -2.7761    0.7281 O   0  0  0  0  0  0  0  0  0  0  0  0
  -15.4196   -8.2574   -4.2724 C   0  0  0  0  0  0  0  0  0  0  0  0
  -13.3809   -9.7898   -5.3848 H   0  0  0  0  0  0  0  0  0  0  0  0
  -14.9192  -10.6705   -5.5429 H   0  0  0  0  0  0  0  0  0  0  0  0
  -14.1834   -9.9002   -6.9694 H   0  0  0  0  0  0  0  0  0  0  0  0
  -15.2057   -7.9335   -7.6511 H   0  0  0  0  0  0  0  0  0  0  0  0
  -17.0081   -5.3592   -4.7655 H   0  0  0  0  0  0  0  0  0  0  0  0
  -15.8832   -7.1152   -1.8618 H   0  0  0  0  0  0  0  0  0  0  0  0
  -18.2739   -6.5713   -0.3968 H   0  0  0  0  0  0  0  0  0  0  0  0
  -18.4085   -4.7837   -0.7417 H   0  0  0  0  0  0  0  0  0  0  0  0
  -16.0208   -4.7108   -0.5338 H   0  0  0  0  0  0  0  0  0  0  0  0
  -16.0989   -6.4312    0.1380 H   0  0  0  0  0  0  0  0  0  0  0  0
  -15.7430   -4.7983    1.7821 H   0  0  0  0  0  0  0  0  0  0  0  0
  -17.4061   -5.5352    1.9411 H   0  0  0  0  0  0  0  0  0  0  0  0
  -20.0256   -1.8821    2.1144 H   0  0  0  0  0  0  0  0  0  0  0  0
  -19.7259    0.5097    1.8313 H   0  0  0  0  0  0  0  0  0  0  0  0
  -18.2268    2.3407    1.2242 H   0  0  0  0  0  0  0  0  0  0  0  0
  -15.8923    1.9377    0.5393 H   0  0  0  0  0  0  0  0  0  0  0  0
  -15.0663   -0.4085    0.4730 H   0  0  0  0  0  0  0  0  0  0  0  0
  -15.1171   -8.9522   -3.4889 H   0  0  0  0  0  0  0  0  0  0  0  0
  -14.8851   -6.2324   -9.0362 O   0  0  0  0  0  0  0  0  0  0  0  0
  -16.0717   -6.4478   -8.4237 C   0  0  0  0  0  0  0  0  0  0  0  0
  -16.8517   -7.2576   -9.2378 C   0  0  0  0  0  0  0  0  0  0  0  0
  -16.0548   -7.5039  -10.3592 C   0  0  0  0  0  0  0  0  0  0  0  0
  -14.8717   -6.8578  -10.1846 N   0  0  0  0  0  0  0  0  0  0  0  0
  -16.4403   -5.8793   -7.0761 C   0  0  0  0  0  0  0  0  0  0  0  0
  -17.8500   -7.6133   -9.0415 H   0  0  0  0  0  0  0  0  0  0  0  0
  -16.3207   -8.1002  -11.2191 H   0  0  0  0  0  0  0  0  0  0  0  0
  -15.9290   -4.9295   -6.9212 H   0  0  0  0  0  0  0  0  0  0  0  0
  -17.5152   -5.7115   -7.0126 H   0  0  0  0  0  0  0  0  0  0  0  0
  1  2  1  0
  2  3  2  0
  3  4  1  0
  4  5  2  0
  5  6  1  0
  6  7  1  0
  7  8  1  0
  8  9  2  0
  8 10  1  0
 10 11  1  0
 11 12  1  0
 12 13  1  0
 13 14  1  0
 14 15  2  0
 14 16  1  0
 16 17  1  0
 17 18  2  0
 18 19  1  0
 19 20  2  0
 20 21  1  0
 21 22  2  0
 22 23  1  0
 23 24  2  0
  6 25  2  0
  2 25  1  0
 13 23  1  0
 17 22  1  0
  1 26  1  0
  1 27  1  0
  1 28  1  0
  3 29  1  0
  5 30  1  0
  7 31  1  0
 10 32  1  0
 10 33  1  0
 11 34  1  0
 11 35  1  0
 12 36  1  0
 12 37  1  0
 16 38  1  0
 18 39  1  0
 19 40  1  0
 20 41  1  0
 21 42  1  0
 25 43  1  0
 44 45  1  0
 44 48  1  0
 45 46  2  0
 45 49  1  0
 46 47  1  0
 46 50  1  0
 47 48  2  0
 47 51  1  0
 49 52  1  0
 49 53  1  0
  4 49  1  0
M  END
>  <CHROM.1>  (37) 
26.90528258,37.87719743,166.66736792,-62.50261021,104.80548779,-16.93186781
-4.30841246,-1.13594729,-1.09322767,1.10604832,0.33796808

>  <Name>  (37) 
design_8

>  <RI>  (37) 
40019600.000000

>  <Rbt.Current_Directory>  (37) 
/pylon5/mc5pksp/smaltr/gateway_workdirs/PROCESS_93251df5-8da2-4fa9-b874-71853b29d1ad

>  <Rbt.Executable>  (37) 
rbdock ($Id: //depot/dev/client3/rdock/2013.1/src/exe/rbdock.cxx#4 $)

>  <Rbt.Library>  (37) 
libRbt.so (2013.1, Build901 2013/11/27)

>  <Rbt.Parameter_File>  (37) 
/home/smaltr/software/rDock_2013.1_src//data/scripts/dock.prm

>  <Rbt.Receptor>  (37) 
/pylon5/mc5pksp/smaltr/gateway_workdirs/PROCESS_93251df5-8da2-4fa9-b874-71853b29d1ad/output/SnD-Target-Sep02/cavity/pocket_docking.prm

>  <SCORE>  (37) 
-18.583100

>  <SCORE.INTER>  (37) 
-20.142300

>  <SCORE.INTER.CONST>  (37) 
1

>  <SCORE.INTER.POLAR>  (37) 
-1.412400

>  <SCORE.INTER.REPUL>  (37) 
0

>  <SCORE.INTER.ROT>  (37) 
5

>  <SCORE.INTER.VDW>  (37) 
-25.740100

>  <SCORE.INTER.norm>  (37) 
-0.805690

>  <SCORE.INTRA>  (37) 
1.559130

>  <SCORE.INTRA.DIHEDRAL>  (37) 
3.626300

>  <SCORE.INTRA.DIHEDRAL.0>  (37) 
3.606730

>  <SCORE.INTRA.POLAR>  (37) 
0

>  <SCORE.INTRA.POLAR.0>  (37) 
0

>  <SCORE.INTRA.REPUL>  (37) 
0

>  <SCORE.INTRA.REPUL.0>  (37) 
0

>  <SCORE.INTRA.VDW>  (37) 
-0.254023

>  <SCORE.INTRA.VDW.0>  (37) 
-0.668565

>  <SCORE.INTRA.norm>  (37) 
0.062365

>  <SCORE.RESTR>  (37) 
0

>  <SCORE.RESTR.CAVITY>  (37) 
0

>  <SCORE.RESTR.norm>  (37) 
0

>  <SCORE.SYSTEM>  (37) 
0

>  <SCORE.SYSTEM.CONST>  (37) 
0

>  <SCORE.SYSTEM.DIHEDRAL>  (37) 
0

>  <SCORE.SYSTEM.norm>  (37) 
0

>  <SCORE.heavy>  (37) 
25

>  <SCORE.norm>  (37) 
-0.743325

>  <SMILES>  (37) 
Cc1cccc(NC(=O)CCCn2c(=O)[nH]c3ccccc3c2=O)c1

>  <Cycle>  (37) 
228

>  <MolWeight>  (37) 
337.379000

>  <LogP>  (37) 
2.417120

>  <QED>  (37) 
0.749761

>  <SAS>  (37) 
1.9664996010900238

$$$$
design_8
     RDKit          3D

 53 56  0  0  0  0  0  0  0  0999 V2000
  -14.3440   -9.8141   -5.8947 C   0  0  0  0  0  0  0  0  0  0  0  0
  -15.0916   -8.5589   -5.6025 C   0  0  0  0  0  0  0  0  0  0  0  0
  -15.4554   -7.7088   -6.6142 C   0  0  0  0  0  0  0  0  0  0  0  0
  -16.1419   -6.5683   -6.2866 C   0  0  0  0  0  0  0  0  0  0  0  0
  -16.4612   -6.2768   -4.9824 C   0  0  0  0  0  0  0  0  0  0  0  0
  -16.1048   -7.1249   -3.9180 C   0  0  0  0  0  0  0  0  0  0  0  0
  -16.4659   -6.7645   -2.6085 N   0  0  0  0  0  0  0  0  0  0  0  0
  -17.5479   -5.9717   -2.2413 C   0  0  0  0  0  0  0  0  0  0  0  0
  -18.3349   -5.4837   -3.0628 O   0  0  0  0  0  0  0  0  0  0  0  0
  -17.7934   -5.6815   -0.8035 C   0  0  0  0  0  0  0  0  0  0  0  0
  -16.5856   -5.4635    0.0162 C   0  0  0  0  0  0  0  0  0  0  0  0
  -16.7486   -4.8801    1.3696 C   0  0  0  0  0  0  0  0  0  0  0  0
  -17.2993   -3.5543    1.4110 N   0  0  0  0  0  0  0  0  0  0  0  0
  -18.5541   -3.3000    1.7754 C   0  0  0  0  0  0  0  0  0  0  0  0
  -19.3262   -4.2234    2.0833 O   0  0  0  0  0  0  0  0  0  0  0  0
  -19.0689   -2.0429    1.8333 N   0  0  0  0  0  0  0  0  0  0  0  0
  -18.2598   -1.0219    1.5033 C   0  0  0  0  0  0  0  0  0  0  0  0
  -18.7007    0.2894    1.5339 C   0  0  0  0  0  0  0  0  0  0  0  0
  -17.8508    1.3181    1.1905 C   0  0  0  0  0  0  0  0  0  0  0  0
  -16.5444    1.1060    0.8061 C   0  0  0  0  0  0  0  0  0  0  0  0
  -16.0926   -0.1941    0.7712 C   0  0  0  0  0  0  0  0  0  0  0  0
  -16.9534   -1.2371    1.1191 C   0  0  0  0  0  0  0  0  0  0  0  0
  -16.4785   -2.5075    1.0750 C   0  0  0  0  0  0  0  0  0  0  0  0
  -15.2797   -2.7761    0.7281 O   0  0  0  0  0  0  0  0  0  0  0  0
  -15.4196   -8.2574   -4.2724 C   0  0  0  0  0  0  0  0  0  0  0  0
  -13.3809   -9.7898   -5.3848 H   0  0  0  0  0  0  0  0  0  0  0  0
  -14.9192  -10.6705   -5.5429 H   0  0  0  0  0  0  0  0  0  0  0  0
  -14.1834   -9.9002   -6.9694 H   0  0  0  0  0  0  0  0  0  0  0  0
  -15.2057   -7.9335   -7.6511 H   0  0  0  0  0  0  0  0  0  0  0  0
  -16.4404   -5.8790   -7.0765 H   0  0  0  0  0  0  0  0  0  0  0  0
  -15.8832   -7.1152   -1.8618 H   0  0  0  0  0  0  0  0  0  0  0  0
  -18.2739   -6.5713   -0.3968 H   0  0  0  0  0  0  0  0  0  0  0  0
  -18.4085   -4.7837   -0.7417 H   0  0  0  0  0  0  0  0  0  0  0  0
  -16.0208   -4.7108   -0.5338 H   0  0  0  0  0  0  0  0  0  0  0  0
  -16.0989   -6.4312    0.1380 H   0  0  0  0  0  0  0  0  0  0  0  0
  -15.7430   -4.7983    1.7821 H   0  0  0  0  0  0  0  0  0  0  0  0
  -17.4061   -5.5352    1.9411 H   0  0  0  0  0  0  0  0  0  0  0  0
  -20.0256   -1.8821    2.1144 H   0  0  0  0  0  0  0  0  0  0  0  0
  -19.7259    0.5097    1.8313 H   0  0  0  0  0  0  0  0  0  0  0  0
  -18.2268    2.3407    1.2242 H   0  0  0  0  0  0  0  0  0  0  0  0
  -15.8923    1.9377    0.5393 H   0  0  0  0  0  0  0  0  0  0  0  0
  -15.0663   -0.4085    0.4730 H   0  0  0  0  0  0  0  0  0  0  0  0
  -15.1171   -8.9522   -3.4889 H   0  0  0  0  0  0  0  0  0  0  0  0
  -18.8464   -5.1331   -6.4841 O   0  0  0  0  0  0  0  0  0  0  0  0
  -18.4328   -5.4826   -5.2446 C   0  0  0  0  0  0  0  0  0  0  0  0
  -19.5239   -5.9559   -4.5288 C   0  0  0  0  0  0  0  0  0  0  0  0
  -20.5974   -5.8643   -5.4189 C   0  0  0  0  0  0  0  0  0  0  0  0
  -20.1301   -5.3586   -6.5909 N   0  0  0  0  0  0  0  0  0  0  0  0
  -17.0079   -5.3596   -4.7656 C   0  0  0  0  0  0  0  0  0  0  0  0
  -19.5329   -6.3130   -3.5119 H   0  0  0  0  0  0  0  0  0  0  0  0
  -21.6219   -6.1426   -5.2222 H   0  0  0  0  0  0  0  0  0  0  0  0
  -16.5150   -4.5316   -5.2747 H   0  0  0  0  0  0  0  0  0  0  0  0
  -16.9797   -5.1756   -3.6918 H   0  0  0  0  0  0  0  0  0  0  0  0
  1  2  1  0
  2  3  2  0
  3  4  1  0
  4  5  2  0
  5  6  1  0
  6  7  1  0
  7  8  1  0
  8  9  2  0
  8 10  1  0
 10 11  1  0
 11 12  1  0
 12 13  1  0
 13 14  1  0
 14 15  2  0
 14 16  1  0
 16 17  1  0
 17 18  2  0
 18 19  1  0
 19 20  2  0
 20 21  1  0
 21 22  2  0
 22 23  1  0
 23 24  2  0
  6 25  2  0
  2 25  1  0
 13 23  1  0
 17 22  1  0
  1 26  1  0
  1 27  1  0
  1 28  1  0
  3 29  1  0
  4 30  1  0
  7 31  1  0
 10 32  1  0
 10 33  1  0
 11 34  1  0
 11 35  1  0
 12 36  1  0
 12 37  1  0
 16 38  1  0
 18 39  1  0
 19 40  1  0
 20 41  1  0
 21 42  1  0
 25 43  1  0
 44 45  1  0
 44 48  1  0
 45 46  2  0
 45 49  1  0
 46 47  1  0
 46 50  1  0
 47 48  2  0
 47 51  1  0
 49 52  1  0
 49 53  1  0
  5 49  1  0
M  END
>  <CHROM.1>  (38) 
26.90528258,37.87719743,166.66736792,-62.50261021,104.80548779,-16.93186781
-4.30841246,-1.13594729,-1.09322767,1.10604832,0.33796808

>  <Name>  (38) 
design_8

>  <RI>  (38) 
40019600.000000

>  <Rbt.Current_Directory>  (38) 
/pylon5/mc5pksp/smaltr/gateway_workdirs/PROCESS_93251df5-8da2-4fa9-b874-71853b29d1ad

>  <Rbt.Executable>  (38) 
rbdock ($Id: //depot/dev/client3/rdock/2013.1/src/exe/rbdock.cxx#4 $)

>  <Rbt.Library>  (38) 
libRbt.so (2013.1, Build901 2013/11/27)

>  <Rbt.Parameter_File>  (38) 
/home/smaltr/software/rDock_2013.1_src//data/scripts/dock.prm

>  <Rbt.Receptor>  (38) 
/pylon5/mc5pksp/smaltr/gateway_workdirs/PROCESS_93251df5-8da2-4fa9-b874-71853b29d1ad/output/SnD-Target-Sep02/cavity/pocket_docking.prm

>  <SCORE>  (38) 
-18.583100

>  <SCORE.INTER>  (38) 
-20.142300

>  <SCORE.INTER.CONST>  (38) 
1

>  <SCORE.INTER.POLAR>  (38) 
-1.412400

>  <SCORE.INTER.REPUL>  (38) 
0

>  <SCORE.INTER.ROT>  (38) 
5

>  <SCORE.INTER.VDW>  (38) 
-25.740100

>  <SCORE.INTER.norm>  (38) 
-0.805690

>  <SCORE.INTRA>  (38) 
1.559130

>  <SCORE.INTRA.DIHEDRAL>  (38) 
3.626300

>  <SCORE.INTRA.DIHEDRAL.0>  (38) 
3.606730

>  <SCORE.INTRA.POLAR>  (38) 
0

>  <SCORE.INTRA.POLAR.0>  (38) 
0

>  <SCORE.INTRA.REPUL>  (38) 
0

>  <SCORE.INTRA.REPUL.0>  (38) 
0

>  <SCORE.INTRA.VDW>  (38) 
-0.254023

>  <SCORE.INTRA.VDW.0>  (38) 
-0.668565

>  <SCORE.INTRA.norm>  (38) 
0.062365

>  <SCORE.RESTR>  (38) 
0

>  <SCORE.RESTR.CAVITY>  (38) 
0

>  <SCORE.RESTR.norm>  (38) 
0

>  <SCORE.SYSTEM>  (38) 
0

>  <SCORE.SYSTEM.CONST>  (38) 
0

>  <SCORE.SYSTEM.DIHEDRAL>  (38) 
0

>  <SCORE.SYSTEM.norm>  (38) 
0

>  <SCORE.heavy>  (38) 
25

>  <SCORE.norm>  (38) 
-0.743325

>  <SMILES>  (38) 
Cc1cccc(NC(=O)CCCn2c(=O)[nH]c3ccccc3c2=O)c1

>  <Cycle>  (38) 
228

>  <MolWeight>  (38) 
337.379000

>  <LogP>  (38) 
2.417120

>  <QED>  (38) 
0.749761

>  <SAS>  (38) 
1.9664996010900238

$$$$
design_8
     RDKit          3D

 53 56  0  0  0  0  0  0  0  0999 V2000
  -14.3440   -9.8141   -5.8947 C   0  0  0  0  0  0  0  0  0  0  0  0
  -15.0916   -8.5589   -5.6025 C   0  0  0  0  0  0  0  0  0  0  0  0
  -15.4554   -7.7088   -6.6142 C   0  0  0  0  0  0  0  0  0  0  0  0
  -16.1419   -6.5683   -6.2866 C   0  0  0  0  0  0  0  0  0  0  0  0
  -16.4612   -6.2768   -4.9824 C   0  0  0  0  0  0  0  0  0  0  0  0
  -16.1048   -7.1249   -3.9180 C   0  0  0  0  0  0  0  0  0  0  0  0
  -16.4659   -6.7645   -2.6085 N   0  0  0  0  0  0  0  0  0  0  0  0
  -17.5479   -5.9717   -2.2413 C   0  0  0  0  0  0  0  0  0  0  0  0
  -18.3349   -5.4837   -3.0628 O   0  0  0  0  0  0  0  0  0  0  0  0
  -17.7934   -5.6815   -0.8035 C   0  0  0  0  0  0  0  0  0  0  0  0
  -16.5856   -5.4635    0.0162 C   0  0  0  0  0  0  0  0  0  0  0  0
  -16.7486   -4.8801    1.3696 C   0  0  0  0  0  0  0  0  0  0  0  0
  -17.2993   -3.5543    1.4110 N   0  0  0  0  0  0  0  0  0  0  0  0
  -18.5541   -3.3000    1.7754 C   0  0  0  0  0  0  0  0  0  0  0  0
  -19.3262   -4.2234    2.0833 O   0  0  0  0  0  0  0  0  0  0  0  0
  -19.0689   -2.0429    1.8333 N   0  0  0  0  0  0  0  0  0  0  0  0
  -18.2598   -1.0219    1.5033 C   0  0  0  0  0  0  0  0  0  0  0  0
  -18.7007    0.2894    1.5339 C   0  0  0  0  0  0  0  0  0  0  0  0
  -17.8508    1.3181    1.1905 C   0  0  0  0  0  0  0  0  0  0  0  0
  -16.5444    1.1060    0.8061 C   0  0  0  0  0  0  0  0  0  0  0  0
  -16.0926   -0.1941    0.7712 C   0  0  0  0  0  0  0  0  0  0  0  0
  -16.9534   -1.2371    1.1191 C   0  0  0  0  0  0  0  0  0  0  0  0
  -16.4785   -2.5075    1.0750 C   0  0  0  0  0  0  0  0  0  0  0  0
  -15.2797   -2.7761    0.7281 O   0  0  0  0  0  0  0  0  0  0  0  0
  -15.4196   -8.2574   -4.2724 C   0  0  0  0  0  0  0  0  0  0  0  0
  -13.3809   -9.7898   -5.3848 H   0  0  0  0  0  0  0  0  0  0  0  0
  -14.9192  -10.6705   -5.5429 H   0  0  0  0  0  0  0  0  0  0  0  0
  -14.1834   -9.9002   -6.9694 H   0  0  0  0  0  0  0  0  0  0  0  0
  -16.4404   -5.8790   -7.0765 H   0  0  0  0  0  0  0  0  0  0  0  0
  -17.0081   -5.3592   -4.7655 H   0  0  0  0  0  0  0  0  0  0  0  0
  -15.8832   -7.1152   -1.8618 H   0  0  0  0  0  0  0  0  0  0  0  0
  -18.2739   -6.5713   -0.3968 H   0  0  0  0  0  0  0  0  0  0  0  0
  -18.4085   -4.7837   -0.7417 H   0  0  0  0  0  0  0  0  0  0  0  0
  -16.0208   -4.7108   -0.5338 H   0  0  0  0  0  0  0  0  0  0  0  0
  -16.0989   -6.4312    0.1380 H   0  0  0  0  0  0  0  0  0  0  0  0
  -15.7430   -4.7983    1.7821 H   0  0  0  0  0  0  0  0  0  0  0  0
  -17.4061   -5.5352    1.9411 H   0  0  0  0  0  0  0  0  0  0  0  0
  -20.0256   -1.8821    2.1144 H   0  0  0  0  0  0  0  0  0  0  0  0
  -19.7259    0.5097    1.8313 H   0  0  0  0  0  0  0  0  0  0  0  0
  -18.2268    2.3407    1.2242 H   0  0  0  0  0  0  0  0  0  0  0  0
  -15.8923    1.9377    0.5393 H   0  0  0  0  0  0  0  0  0  0  0  0
  -15.0663   -0.4085    0.4730 H   0  0  0  0  0  0  0  0  0  0  0  0
  -15.1171   -8.9522   -3.4889 H   0  0  0  0  0  0  0  0  0  0  0  0
  -15.9457  -10.3023   -8.1261 O   0  0  0  0  0  0  0  0  0  0  0  0
  -16.1570   -8.9682   -8.1980 C   0  0  0  0  0  0  0  0  0  0  0  0
  -17.3649   -8.7435   -8.8439 C   0  0  0  0  0  0  0  0  0  0  0  0
  -17.8479  -10.0200   -9.1446 C   0  0  0  0  0  0  0  0  0  0  0  0
  -16.9471  -10.9292   -8.6866 N   0  0  0  0  0  0  0  0  0  0  0  0
  -15.2058   -7.9334   -7.6507 C   0  0  0  0  0  0  0  0  0  0  0  0
  -17.8222   -7.7921   -9.0617 H   0  0  0  0  0  0  0  0  0  0  0  0
  -18.7717  -10.2556   -9.6513 H   0  0  0  0  0  0  0  0  0  0  0  0
  -14.1841   -8.3107   -7.6891 H   0  0  0  0  0  0  0  0  0  0  0  0
  -15.2611   -7.0154   -8.2355 H   0  0  0  0  0  0  0  0  0  0  0  0
  1  2  1  0
  2  3  2  0
  3  4  1  0
  4  5  2  0
  5  6  1  0
  6  7  1  0
  7  8  1  0
  8  9  2  0
  8 10  1  0
 10 11  1  0
 11 12  1  0
 12 13  1  0
 13 14  1  0
 14 15  2  0
 14 16  1  0
 16 17  1  0
 17 18  2  0
 18 19  1  0
 19 20  2  0
 20 21  1  0
 21 22  2  0
 22 23  1  0
 23 24  2  0
  6 25  2  0
  2 25  1  0
 13 23  1  0
 17 22  1  0
  1 26  1  0
  1 27  1  0
  1 28  1  0
  4 29  1  0
  5 30  1  0
  7 31  1  0
 10 32  1  0
 10 33  1  0
 11 34  1  0
 11 35  1  0
 12 36  1  0
 12 37  1  0
 16 38  1  0
 18 39  1  0
 19 40  1  0
 20 41  1  0
 21 42  1  0
 25 43  1  0
 44 45  1  0
 44 48  1  0
 45 46  2  0
 45 49  1  0
 46 47  1  0
 46 50  1  0
 47 48  2  0
 47 51  1  0
 49 52  1  0
 49 53  1  0
  3 49  1  0
M  END
>  <CHROM.1>  (39) 
26.90528258,37.87719743,166.66736792,-62.50261021,104.80548779,-16.93186781
-4.30841246,-1.13594729,-1.09322767,1.10604832,0.33796808

>  <Name>  (39) 
design_8

>  <RI>  (39) 
40019600.000000

>  <Rbt.Current_Directory>  (39) 
/pylon5/mc5pksp/smaltr/gateway_workdirs/PROCESS_93251df5-8da2-4fa9-b874-71853b29d1ad

>  <Rbt.Executable>  (39) 
rbdock ($Id: //depot/dev/client3/rdock/2013.1/src/exe/rbdock.cxx#4 $)

>  <Rbt.Library>  (39) 
libRbt.so (2013.1, Build901 2013/11/27)

>  <Rbt.Parameter_File>  (39) 
/home/smaltr/software/rDock_2013.1_src//data/scripts/dock.prm

>  <Rbt.Receptor>  (39) 
/pylon5/mc5pksp/smaltr/gateway_workdirs/PROCESS_93251df5-8da2-4fa9-b874-71853b29d1ad/output/SnD-Target-Sep02/cavity/pocket_docking.prm

>  <SCORE>  (39) 
-18.583100

>  <SCORE.INTER>  (39) 
-20.142300

>  <SCORE.INTER.CONST>  (39) 
1

>  <SCORE.INTER.POLAR>  (39) 
-1.412400

>  <SCORE.INTER.REPUL>  (39) 
0

>  <SCORE.INTER.ROT>  (39) 
5

>  <SCORE.INTER.VDW>  (39) 
-25.740100

>  <SCORE.INTER.norm>  (39) 
-0.805690

>  <SCORE.INTRA>  (39) 
1.559130

>  <SCORE.INTRA.DIHEDRAL>  (39) 
3.626300

>  <SCORE.INTRA.DIHEDRAL.0>  (39) 
3.606730

>  <SCORE.INTRA.POLAR>  (39) 
0

>  <SCORE.INTRA.POLAR.0>  (39) 
0

>  <SCORE.INTRA.REPUL>  (39) 
0

>  <SCORE.INTRA.REPUL.0>  (39) 
0

>  <SCORE.INTRA.VDW>  (39) 
-0.254023

>  <SCORE.INTRA.VDW.0>  (39) 
-0.668565

>  <SCORE.INTRA.norm>  (39) 
0.062365

>  <SCORE.RESTR>  (39) 
0

>  <SCORE.RESTR.CAVITY>  (39) 
0

>  <SCORE.RESTR.norm>  (39) 
0

>  <SCORE.SYSTEM>  (39) 
0

>  <SCORE.SYSTEM.CONST>  (39) 
0

>  <SCORE.SYSTEM.DIHEDRAL>  (39) 
0

>  <SCORE.SYSTEM.norm>  (39) 
0

>  <SCORE.heavy>  (39) 
25

>  <SCORE.norm>  (39) 
-0.743325

>  <SMILES>  (39) 
Cc1cccc(NC(=O)CCCn2c(=O)[nH]c3ccccc3c2=O)c1

>  <Cycle>  (39) 
228

>  <MolWeight>  (39) 
337.379000

>  <LogP>  (39) 
2.417120

>  <QED>  (39) 
0.749761

>  <SAS>  (39) 
1.9664996010900238

$$$$
design_8
     RDKit          3D

 53 56  0  0  0  0  0  0  0  0999 V2000
  -14.3440   -9.8141   -5.8947 C   0  0  0  0  0  0  0  0  0  0  0  0
  -15.0916   -8.5589   -5.6025 C   0  0  0  0  0  0  0  0  0  0  0  0
  -15.4554   -7.7088   -6.6142 C   0  0  0  0  0  0  0  0  0  0  0  0
  -16.1419   -6.5683   -6.2866 C   0  0  0  0  0  0  0  0  0  0  0  0
  -16.4612   -6.2768   -4.9824 C   0  0  0  0  0  0  0  0  0  0  0  0
  -16.1048   -7.1249   -3.9180 C   0  0  0  0  0  0  0  0  0  0  0  0
  -16.4659   -6.7645   -2.6085 N   0  0  0  0  0  0  0  0  0  0  0  0
  -17.5479   -5.9717   -2.2413 C   0  0  0  0  0  0  0  0  0  0  0  0
  -18.3349   -5.4837   -3.0628 O   0  0  0  0  0  0  0  0  0  0  0  0
  -17.7934   -5.6815   -0.8035 C   0  0  0  0  0  0  0  0  0  0  0  0
  -16.5856   -5.4635    0.0162 C   0  0  0  0  0  0  0  0  0  0  0  0
  -16.7486   -4.8801    1.3696 C   0  0  0  0  0  0  0  0  0  0  0  0
  -17.2993   -3.5543    1.4110 N   0  0  0  0  0  0  0  0  0  0  0  0
  -18.5541   -3.3000    1.7754 C   0  0  0  0  0  0  0  0  0  0  0  0
  -19.3262   -4.2234    2.0833 O   0  0  0  0  0  0  0  0  0  0  0  0
  -19.0689   -2.0429    1.8333 N   0  0  0  0  0  0  0  0  0  0  0  0
  -18.2598   -1.0219    1.5033 C   0  0  0  0  0  0  0  0  0  0  0  0
  -18.7007    0.2894    1.5339 C   0  0  0  0  0  0  0  0  0  0  0  0
  -17.8508    1.3181    1.1905 C   0  0  0  0  0  0  0  0  0  0  0  0
  -16.5444    1.1060    0.8061 C   0  0  0  0  0  0  0  0  0  0  0  0
  -16.0926   -0.1941    0.7712 C   0  0  0  0  0  0  0  0  0  0  0  0
  -16.9534   -1.2371    1.1191 C   0  0  0  0  0  0  0  0  0  0  0  0
  -16.4785   -2.5075    1.0750 C   0  0  0  0  0  0  0  0  0  0  0  0
  -15.2797   -2.7761    0.7281 O   0  0  0  0  0  0  0  0  0  0  0  0
  -15.4196   -8.2574   -4.2724 C   0  0  0  0  0  0  0  0  0  0  0  0
  -13.3809   -9.7898   -5.3848 H   0  0  0  0  0  0  0  0  0  0  0  0
  -14.9192  -10.6705   -5.5429 H   0  0  0  0  0  0  0  0  0  0  0  0
  -14.1834   -9.9002   -6.9694 H   0  0  0  0  0  0  0  0  0  0  0  0
  -15.2057   -7.9335   -7.6511 H   0  0  0  0  0  0  0  0  0  0  0  0
  -16.4404   -5.8790   -7.0765 H   0  0  0  0  0  0  0  0  0  0  0  0
  -17.0081   -5.3592   -4.7655 H   0  0  0  0  0  0  0  0  0  0  0  0
  -15.8832   -7.1152   -1.8618 H   0  0  0  0  0  0  0  0  0  0  0  0
  -18.2739   -6.5713   -0.3968 H   0  0  0  0  0  0  0  0  0  0  0  0
  -18.4085   -4.7837   -0.7417 H   0  0  0  0  0  0  0  0  0  0  0  0
  -16.0208   -4.7108   -0.5338 H   0  0  0  0  0  0  0  0  0  0  0  0
  -16.0989   -6.4312    0.1380 H   0  0  0  0  0  0  0  0  0  0  0  0
  -15.7430   -4.7983    1.7821 H   0  0  0  0  0  0  0  0  0  0  0  0
  -17.4061   -5.5352    1.9411 H   0  0  0  0  0  0  0  0  0  0  0  0
  -20.0256   -1.8821    2.1144 H   0  0  0  0  0  0  0  0  0  0  0  0
  -19.7259    0.5097    1.8313 H   0  0  0  0  0  0  0  0  0  0  0  0
  -18.2268    2.3407    1.2242 H   0  0  0  0  0  0  0  0  0  0  0  0
  -15.8923    1.9377    0.5393 H   0  0  0  0  0  0  0  0  0  0  0  0
  -15.0663   -0.4085    0.4730 H   0  0  0  0  0  0  0  0  0  0  0  0
  -16.9493   -8.9977   -1.7497 O   0  0  0  0  0  0  0  0  0  0  0  0
  -16.3356   -9.5427   -2.8248 C   0  0  0  0  0  0  0  0  0  0  0  0
  -17.0128  -10.6999   -3.1841 C   0  0  0  0  0  0  0  0  0  0  0  0
  -18.0564  -10.8003   -2.2600 C   0  0  0  0  0  0  0  0  0  0  0  0
  -17.9708   -9.7413   -1.4122 N   0  0  0  0  0  0  0  0  0  0  0  0
  -15.1172   -8.9519   -3.4892 C   0  0  0  0  0  0  0  0  0  0  0  0
  -16.7791  -11.3679   -3.9971 H   0  0  0  0  0  0  0  0  0  0  0  0
  -18.8047  -11.5773   -2.2165 H   0  0  0  0  0  0  0  0  0  0  0  0
  -14.5196   -8.4111   -2.7558 H   0  0  0  0  0  0  0  0  0  0  0  0
  -14.5029   -9.7370   -3.9296 H   0  0  0  0  0  0  0  0  0  0  0  0
  1  2  1  0
  2  3  2  0
  3  4  1  0
  4  5  2  0
  5  6  1  0
  6  7  1  0
  7  8  1  0
  8  9  2  0
  8 10  1  0
 10 11  1  0
 11 12  1  0
 12 13  1  0
 13 14  1  0
 14 15  2  0
 14 16  1  0
 16 17  1  0
 17 18  2  0
 18 19  1  0
 19 20  2  0
 20 21  1  0
 21 22  2  0
 22 23  1  0
 23 24  2  0
  6 25  2  0
  2 25  1  0
 13 23  1  0
 17 22  1  0
  1 26  1  0
  1 27  1  0
  1 28  1  0
  3 29  1  0
  4 30  1  0
  5 31  1  0
  7 32  1  0
 10 33  1  0
 10 34  1  0
 11 35  1  0
 11 36  1  0
 12 37  1  0
 12 38  1  0
 16 39  1  0
 18 40  1  0
 19 41  1  0
 20 42  1  0
 21 43  1  0
 44 45  1  0
 44 48  1  0
 45 46  2  0
 45 49  1  0
 46 47  1  0
 46 50  1  0
 47 48  2  0
 47 51  1  0
 49 52  1  0
 49 53  1  0
 25 49  1  0
M  END
>  <CHROM.1>  (40) 
26.90528258,37.87719743,166.66736792,-62.50261021,104.80548779,-16.93186781
-4.30841246,-1.13594729,-1.09322767,1.10604832,0.33796808

>  <Name>  (40) 
design_8

>  <RI>  (40) 
40019600.000000

>  <Rbt.Current_Directory>  (40) 
/pylon5/mc5pksp/smaltr/gateway_workdirs/PROCESS_93251df5-8da2-4fa9-b874-71853b29d1ad

>  <Rbt.Executable>  (40) 
rbdock ($Id: //depot/dev/client3/rdock/2013.1/src/exe/rbdock.cxx#4 $)

>  <Rbt.Library>  (40) 
libRbt.so (2013.1, Build901 2013/11/27)

>  <Rbt.Parameter_File>  (40) 
/home/smaltr/software/rDock_2013.1_src//data/scripts/dock.prm

>  <Rbt.Receptor>  (40) 
/pylon5/mc5pksp/smaltr/gateway_workdirs/PROCESS_93251df5-8da2-4fa9-b874-71853b29d1ad/output/SnD-Target-Sep02/cavity/pocket_docking.prm

>  <SCORE>  (40) 
-18.583100

>  <SCORE.INTER>  (40) 
-20.142300

>  <SCORE.INTER.CONST>  (40) 
1

>  <SCORE.INTER.POLAR>  (40) 
-1.412400

>  <SCORE.INTER.REPUL>  (40) 
0

>  <SCORE.INTER.ROT>  (40) 
5

>  <SCORE.INTER.VDW>  (40) 
-25.740100

>  <SCORE.INTER.norm>  (40) 
-0.805690

>  <SCORE.INTRA>  (40) 
1.559130

>  <SCORE.INTRA.DIHEDRAL>  (40) 
3.626300

>  <SCORE.INTRA.DIHEDRAL.0>  (40) 
3.606730

>  <SCORE.INTRA.POLAR>  (40) 
0

>  <SCORE.INTRA.POLAR.0>  (40) 
0

>  <SCORE.INTRA.REPUL>  (40) 
0

>  <SCORE.INTRA.REPUL.0>  (40) 
0

>  <SCORE.INTRA.VDW>  (40) 
-0.254023

>  <SCORE.INTRA.VDW.0>  (40) 
-0.668565

>  <SCORE.INTRA.norm>  (40) 
0.062365

>  <SCORE.RESTR>  (40) 
0

>  <SCORE.RESTR.CAVITY>  (40) 
0

>  <SCORE.RESTR.norm>  (40) 
0

>  <SCORE.SYSTEM>  (40) 
0

>  <SCORE.SYSTEM.CONST>  (40) 
0

>  <SCORE.SYSTEM.DIHEDRAL>  (40) 
0

>  <SCORE.SYSTEM.norm>  (40) 
0

>  <SCORE.heavy>  (40) 
25

>  <SCORE.norm>  (40) 
-0.743325

>  <SMILES>  (40) 
Cc1cccc(NC(=O)CCCn2c(=O)[nH]c3ccccc3c2=O)c1

>  <Cycle>  (40) 
228

>  <MolWeight>  (40) 
337.379000

>  <LogP>  (40) 
2.417120

>  <QED>  (40) 
0.749761

>  <SAS>  (40) 
1.9664996010900238

$$$$
design_8
     RDKit          3D

 53 56  0  0  0  0  0  0  0  0999 V2000
  -14.3440   -9.8141   -5.8947 C   0  0  0  0  0  0  0  0  0  0  0  0
  -15.0916   -8.5589   -5.6025 C   0  0  0  0  0  0  0  0  0  0  0  0
  -15.4554   -7.7088   -6.6142 C   0  0  0  0  0  0  0  0  0  0  0  0
  -16.1419   -6.5683   -6.2866 C   0  0  0  0  0  0  0  0  0  0  0  0
  -16.4612   -6.2768   -4.9824 C   0  0  0  0  0  0  0  0  0  0  0  0
  -16.1048   -7.1249   -3.9180 C   0  0  0  0  0  0  0  0  0  0  0  0
  -16.4659   -6.7645   -2.6085 N   0  0  0  0  0  0  0  0  0  0  0  0
  -17.5479   -5.9717   -2.2413 C   0  0  0  0  0  0  0  0  0  0  0  0
  -18.3349   -5.4837   -3.0628 O   0  0  0  0  0  0  0  0  0  0  0  0
  -17.7934   -5.6815   -0.8035 C   0  0  0  0  0  0  0  0  0  0  0  0
  -16.5856   -5.4635    0.0162 C   0  0  0  0  0  0  0  0  0  0  0  0
  -16.7486   -4.8801    1.3696 C   0  0  0  0  0  0  0  0  0  0  0  0
  -17.2993   -3.5543    1.4110 N   0  0  0  0  0  0  0  0  0  0  0  0
  -18.5541   -3.3000    1.7754 C   0  0  0  0  0  0  0  0  0  0  0  0
  -19.3262   -4.2234    2.0833 O   0  0  0  0  0  0  0  0  0  0  0  0
  -19.0689   -2.0429    1.8333 N   0  0  0  0  0  0  0  0  0  0  0  0
  -18.2598   -1.0219    1.5033 C   0  0  0  0  0  0  0  0  0  0  0  0
  -18.7007    0.2894    1.5339 C   0  0  0  0  0  0  0  0  0  0  0  0
  -17.8508    1.3181    1.1905 C   0  0  0  0  0  0  0  0  0  0  0  0
  -16.5444    1.1060    0.8061 C   0  0  0  0  0  0  0  0  0  0  0  0
  -16.0926   -0.1941    0.7712 C   0  0  0  0  0  0  0  0  0  0  0  0
  -16.9534   -1.2371    1.1191 C   0  0  0  0  0  0  0  0  0  0  0  0
  -16.4785   -2.5075    1.0750 C   0  0  0  0  0  0  0  0  0  0  0  0
  -15.2797   -2.7761    0.7281 O   0  0  0  0  0  0  0  0  0  0  0  0
  -15.4196   -8.2574   -4.2724 C   0  0  0  0  0  0  0  0  0  0  0  0
  -13.3809   -9.7898   -5.3848 H   0  0  0  0  0  0  0  0  0  0  0  0
  -14.9192  -10.6705   -5.5429 H   0  0  0  0  0  0  0  0  0  0  0  0
  -14.1834   -9.9002   -6.9694 H   0  0  0  0  0  0  0  0  0  0  0  0
  -15.2057   -7.9335   -7.6511 H   0  0  0  0  0  0  0  0  0  0  0  0
  -16.4404   -5.8790   -7.0765 H   0  0  0  0  0  0  0  0  0  0  0  0
  -17.0081   -5.3592   -4.7655 H   0  0  0  0  0  0  0  0  0  0  0  0
  -15.8832   -7.1152   -1.8618 H   0  0  0  0  0  0  0  0  0  0  0  0
  -18.2739   -6.5713   -0.3968 H   0  0  0  0  0  0  0  0  0  0  0  0
  -18.4085   -4.7837   -0.7417 H   0  0  0  0  0  0  0  0  0  0  0  0
  -16.0208   -4.7108   -0.5338 H   0  0  0  0  0  0  0  0  0  0  0  0
  -16.0989   -6.4312    0.1380 H   0  0  0  0  0  0  0  0  0  0  0  0
  -15.7430   -4.7983    1.7821 H   0  0  0  0  0  0  0  0  0  0  0  0
  -17.4061   -5.5352    1.9411 H   0  0  0  0  0  0  0  0  0  0  0  0
  -20.0256   -1.8821    2.1144 H   0  0  0  0  0  0  0  0  0  0  0  0
  -19.7259    0.5097    1.8313 H   0  0  0  0  0  0  0  0  0  0  0  0
  -18.2268    2.3407    1.2242 H   0  0  0  0  0  0  0  0  0  0  0  0
  -15.0663   -0.4085    0.4730 H   0  0  0  0  0  0  0  0  0  0  0  0
  -15.1171   -8.9522   -3.4889 H   0  0  0  0  0  0  0  0  0  0  0  0
  -15.6142    1.9242   -1.9720 O   0  0  0  0  0  0  0  0  0  0  0  0
  -16.2062    2.4115   -0.8577 C   0  0  0  0  0  0  0  0  0  0  0  0
  -17.1185    3.3892   -1.2302 C   0  0  0  0  0  0  0  0  0  0  0  0
  -17.0272    3.4455   -2.6235 C   0  0  0  0  0  0  0  0  0  0  0  0
  -16.0993    2.5353   -3.0215 N   0  0  0  0  0  0  0  0  0  0  0  0
  -15.8926    1.9373    0.5394 C   0  0  0  0  0  0  0  0  0  0  0  0
  -17.7529    3.9716   -0.5821 H   0  0  0  0  0  0  0  0  0  0  0  0
  -17.5890    4.0934   -3.2795 H   0  0  0  0  0  0  0  0  0  0  0  0
  -14.8578    1.6000    0.5937 H   0  0  0  0  0  0  0  0  0  0  0  0
  -16.0349    2.7440    1.2582 H   0  0  0  0  0  0  0  0  0  0  0  0
  1  2  1  0
  2  3  2  0
  3  4  1  0
  4  5  2  0
  5  6  1  0
  6  7  1  0
  7  8  1  0
  8  9  2  0
  8 10  1  0
 10 11  1  0
 11 12  1  0
 12 13  1  0
 13 14  1  0
 14 15  2  0
 14 16  1  0
 16 17  1  0
 17 18  2  0
 18 19  1  0
 19 20  2  0
 20 21  1  0
 21 22  2  0
 22 23  1  0
 23 24  2  0
  6 25  2  0
  2 25  1  0
 13 23  1  0
 17 22  1  0
  1 26  1  0
  1 27  1  0
  1 28  1  0
  3 29  1  0
  4 30  1  0
  5 31  1  0
  7 32  1  0
 10 33  1  0
 10 34  1  0
 11 35  1  0
 11 36  1  0
 12 37  1  0
 12 38  1  0
 16 39  1  0
 18 40  1  0
 19 41  1  0
 21 42  1  0
 25 43  1  0
 44 45  1  0
 44 48  1  0
 45 46  2  0
 45 49  1  0
 46 47  1  0
 46 50  1  0
 47 48  2  0
 47 51  1  0
 49 52  1  0
 49 53  1  0
 20 49  1  0
M  END
>  <CHROM.1>  (41) 
26.90528258,37.87719743,166.66736792,-62.50261021,104.80548779,-16.93186781
-4.30841246,-1.13594729,-1.09322767,1.10604832,0.33796808

>  <Name>  (41) 
design_8

>  <RI>  (41) 
40019600.000000

>  <Rbt.Current_Directory>  (41) 
/pylon5/mc5pksp/smaltr/gateway_workdirs/PROCESS_93251df5-8da2-4fa9-b874-71853b29d1ad

>  <Rbt.Executable>  (41) 
rbdock ($Id: //depot/dev/client3/rdock/2013.1/src/exe/rbdock.cxx#4 $)

>  <Rbt.Library>  (41) 
libRbt.so (2013.1, Build901 2013/11/27)

>  <Rbt.Parameter_File>  (41) 
/home/smaltr/software/rDock_2013.1_src//data/scripts/dock.prm

>  <Rbt.Receptor>  (41) 
/pylon5/mc5pksp/smaltr/gateway_workdirs/PROCESS_93251df5-8da2-4fa9-b874-71853b29d1ad/output/SnD-Target-Sep02/cavity/pocket_docking.prm

>  <SCORE>  (41) 
-18.583100

>  <SCORE.INTER>  (41) 
-20.142300

>  <SCORE.INTER.CONST>  (41) 
1

>  <SCORE.INTER.POLAR>  (41) 
-1.412400

>  <SCORE.INTER.REPUL>  (41) 
0

>  <SCORE.INTER.ROT>  (41) 
5

>  <SCORE.INTER.VDW>  (41) 
-25.740100

>  <SCORE.INTER.norm>  (41) 
-0.805690

>  <SCORE.INTRA>  (41) 
1.559130

>  <SCORE.INTRA.DIHEDRAL>  (41) 
3.626300

>  <SCORE.INTRA.DIHEDRAL.0>  (41) 
3.606730

>  <SCORE.INTRA.POLAR>  (41) 
0

>  <SCORE.INTRA.POLAR.0>  (41) 
0

>  <SCORE.INTRA.REPUL>  (41) 
0

>  <SCORE.INTRA.REPUL.0>  (41) 
0

>  <SCORE.INTRA.VDW>  (41) 
-0.254023

>  <SCORE.INTRA.VDW.0>  (41) 
-0.668565

>  <SCORE.INTRA.norm>  (41) 
0.062365

>  <SCORE.RESTR>  (41) 
0

>  <SCORE.RESTR.CAVITY>  (41) 
0

>  <SCORE.RESTR.norm>  (41) 
0

>  <SCORE.SYSTEM>  (41) 
0

>  <SCORE.SYSTEM.CONST>  (41) 
0

>  <SCORE.SYSTEM.DIHEDRAL>  (41) 
0

>  <SCORE.SYSTEM.norm>  (41) 
0

>  <SCORE.heavy>  (41) 
25

>  <SCORE.norm>  (41) 
-0.743325

>  <SMILES>  (41) 
Cc1cccc(NC(=O)CCCn2c(=O)[nH]c3ccccc3c2=O)c1

>  <Cycle>  (41) 
228

>  <MolWeight>  (41) 
337.379000

>  <LogP>  (41) 
2.417120

>  <QED>  (41) 
0.749761

>  <SAS>  (41) 
1.9664996010900238

$$$$
design_8
     RDKit          3D

 53 56  0  0  0  0  0  0  0  0999 V2000
  -14.3440   -9.8141   -5.8947 C   0  0  0  0  0  0  0  0  0  0  0  0
  -15.0916   -8.5589   -5.6025 C   0  0  0  0  0  0  0  0  0  0  0  0
  -15.4554   -7.7088   -6.6142 C   0  0  0  0  0  0  0  0  0  0  0  0
  -16.1419   -6.5683   -6.2866 C   0  0  0  0  0  0  0  0  0  0  0  0
  -16.4612   -6.2768   -4.9824 C   0  0  0  0  0  0  0  0  0  0  0  0
  -16.1048   -7.1249   -3.9180 C   0  0  0  0  0  0  0  0  0  0  0  0
  -16.4659   -6.7645   -2.6085 N   0  0  0  0  0  0  0  0  0  0  0  0
  -17.5479   -5.9717   -2.2413 C   0  0  0  0  0  0  0  0  0  0  0  0
  -18.3349   -5.4837   -3.0628 O   0  0  0  0  0  0  0  0  0  0  0  0
  -17.7934   -5.6815   -0.8035 C   0  0  0  0  0  0  0  0  0  0  0  0
  -16.5856   -5.4635    0.0162 C   0  0  0  0  0  0  0  0  0  0  0  0
  -16.7486   -4.8801    1.3696 C   0  0  0  0  0  0  0  0  0  0  0  0
  -17.2993   -3.5543    1.4110 N   0  0  0  0  0  0  0  0  0  0  0  0
  -18.5541   -3.3000    1.7754 C   0  0  0  0  0  0  0  0  0  0  0  0
  -19.3262   -4.2234    2.0833 O   0  0  0  0  0  0  0  0  0  0  0  0
  -19.0689   -2.0429    1.8333 N   0  0  0  0  0  0  0  0  0  0  0  0
  -18.2598   -1.0219    1.5033 C   0  0  0  0  0  0  0  0  0  0  0  0
  -18.7007    0.2894    1.5339 C   0  0  0  0  0  0  0  0  0  0  0  0
  -17.8508    1.3181    1.1905 C   0  0  0  0  0  0  0  0  0  0  0  0
  -16.5444    1.1060    0.8061 C   0  0  0  0  0  0  0  0  0  0  0  0
  -16.0926   -0.1941    0.7712 C   0  0  0  0  0  0  0  0  0  0  0  0
  -16.9534   -1.2371    1.1191 C   0  0  0  0  0  0  0  0  0  0  0  0
  -16.4785   -2.5075    1.0750 C   0  0  0  0  0  0  0  0  0  0  0  0
  -15.2797   -2.7761    0.7281 O   0  0  0  0  0  0  0  0  0  0  0  0
  -15.4196   -8.2574   -4.2724 C   0  0  0  0  0  0  0  0  0  0  0  0
  -13.3809   -9.7898   -5.3848 H   0  0  0  0  0  0  0  0  0  0  0  0
  -14.9192  -10.6705   -5.5429 H   0  0  0  0  0  0  0  0  0  0  0  0
  -14.1834   -9.9002   -6.9694 H   0  0  0  0  0  0  0  0  0  0  0  0
  -15.2057   -7.9335   -7.6511 H   0  0  0  0  0  0  0  0  0  0  0  0
  -16.4404   -5.8790   -7.0765 H   0  0  0  0  0  0  0  0  0  0  0  0
  -17.0081   -5.3592   -4.7655 H   0  0  0  0  0  0  0  0  0  0  0  0
  -15.8832   -7.1152   -1.8618 H   0  0  0  0  0  0  0  0  0  0  0  0
  -18.2739   -6.5713   -0.3968 H   0  0  0  0  0  0  0  0  0  0  0  0
  -18.4085   -4.7837   -0.7417 H   0  0  0  0  0  0  0  0  0  0  0  0
  -16.0208   -4.7108   -0.5338 H   0  0  0  0  0  0  0  0  0  0  0  0
  -16.0989   -6.4312    0.1380 H   0  0  0  0  0  0  0  0  0  0  0  0
  -15.7430   -4.7983    1.7821 H   0  0  0  0  0  0  0  0  0  0  0  0
  -17.4061   -5.5352    1.9411 H   0  0  0  0  0  0  0  0  0  0  0  0
  -20.0256   -1.8821    2.1144 H   0  0  0  0  0  0  0  0  0  0  0  0
  -19.7259    0.5097    1.8313 H   0  0  0  0  0  0  0  0  0  0  0  0
  -15.8923    1.9377    0.5393 H   0  0  0  0  0  0  0  0  0  0  0  0
  -15.0663   -0.4085    0.4730 H   0  0  0  0  0  0  0  0  0  0  0  0
  -15.1171   -8.9522   -3.4889 H   0  0  0  0  0  0  0  0  0  0  0  0
  -18.9659    2.9674   -1.1093 O   0  0  0  0  0  0  0  0  0  0  0  0
  -19.2576    2.5469    0.1428 C   0  0  0  0  0  0  0  0  0  0  0  0
  -20.6285    2.3504    0.2377 C   0  0  0  0  0  0  0  0  0  0  0  0
  -21.1212    2.6785   -1.0282 C   0  0  0  0  0  0  0  0  0  0  0  0
  -20.0693    3.0462   -1.8067 N   0  0  0  0  0  0  0  0  0  0  0  0
  -18.2266    2.3402    1.2242 C   0  0  0  0  0  0  0  0  0  0  0  0
  -21.1826    2.0183    1.1005 H   0  0  0  0  0  0  0  0  0  0  0  0
  -22.1531    2.6494   -1.3444 H   0  0  0  0  0  0  0  0  0  0  0  0
  -17.3909    3.0238    1.0762 H   0  0  0  0  0  0  0  0  0  0  0  0
  -18.6600    2.5263    2.2067 H   0  0  0  0  0  0  0  0  0  0  0  0
  1  2  1  0
  2  3  2  0
  3  4  1  0
  4  5  2  0
  5  6  1  0
  6  7  1  0
  7  8  1  0
  8  9  2  0
  8 10  1  0
 10 11  1  0
 11 12  1  0
 12 13  1  0
 13 14  1  0
 14 15  2  0
 14 16  1  0
 16 17  1  0
 17 18  2  0
 18 19  1  0
 19 20  2  0
 20 21  1  0
 21 22  2  0
 22 23  1  0
 23 24  2  0
  6 25  2  0
  2 25  1  0
 13 23  1  0
 17 22  1  0
  1 26  1  0
  1 27  1  0
  1 28  1  0
  3 29  1  0
  4 30  1  0
  5 31  1  0
  7 32  1  0
 10 33  1  0
 10 34  1  0
 11 35  1  0
 11 36  1  0
 12 37  1  0
 12 38  1  0
 16 39  1  0
 18 40  1  0
 20 41  1  0
 21 42  1  0
 25 43  1  0
 44 45  1  0
 44 48  1  0
 45 46  2  0
 45 49  1  0
 46 47  1  0
 46 50  1  0
 47 48  2  0
 47 51  1  0
 49 52  1  0
 49 53  1  0
 19 49  1  0
M  END
>  <CHROM.1>  (42) 
26.90528258,37.87719743,166.66736792,-62.50261021,104.80548779,-16.93186781
-4.30841246,-1.13594729,-1.09322767,1.10604832,0.33796808

>  <Name>  (42) 
design_8

>  <RI>  (42) 
40019600.000000

>  <Rbt.Current_Directory>  (42) 
/pylon5/mc5pksp/smaltr/gateway_workdirs/PROCESS_93251df5-8da2-4fa9-b874-71853b29d1ad

>  <Rbt.Executable>  (42) 
rbdock ($Id: //depot/dev/client3/rdock/2013.1/src/exe/rbdock.cxx#4 $)

>  <Rbt.Library>  (42) 
libRbt.so (2013.1, Build901 2013/11/27)

>  <Rbt.Parameter_File>  (42) 
/home/smaltr/software/rDock_2013.1_src//data/scripts/dock.prm

>  <Rbt.Receptor>  (42) 
/pylon5/mc5pksp/smaltr/gateway_workdirs/PROCESS_93251df5-8da2-4fa9-b874-71853b29d1ad/output/SnD-Target-Sep02/cavity/pocket_docking.prm

>  <SCORE>  (42) 
-18.583100

>  <SCORE.INTER>  (42) 
-20.142300

>  <SCORE.INTER.CONST>  (42) 
1

>  <SCORE.INTER.POLAR>  (42) 
-1.412400

>  <SCORE.INTER.REPUL>  (42) 
0

>  <SCORE.INTER.ROT>  (42) 
5

>  <SCORE.INTER.VDW>  (42) 
-25.740100

>  <SCORE.INTER.norm>  (42) 
-0.805690

>  <SCORE.INTRA>  (42) 
1.559130

>  <SCORE.INTRA.DIHEDRAL>  (42) 
3.626300

>  <SCORE.INTRA.DIHEDRAL.0>  (42) 
3.606730

>  <SCORE.INTRA.POLAR>  (42) 
0

>  <SCORE.INTRA.POLAR.0>  (42) 
0

>  <SCORE.INTRA.REPUL>  (42) 
0

>  <SCORE.INTRA.REPUL.0>  (42) 
0

>  <SCORE.INTRA.VDW>  (42) 
-0.254023

>  <SCORE.INTRA.VDW.0>  (42) 
-0.668565

>  <SCORE.INTRA.norm>  (42) 
0.062365

>  <SCORE.RESTR>  (42) 
0

>  <SCORE.RESTR.CAVITY>  (42) 
0

>  <SCORE.RESTR.norm>  (42) 
0

>  <SCORE.SYSTEM>  (42) 
0

>  <SCORE.SYSTEM.CONST>  (42) 
0

>  <SCORE.SYSTEM.DIHEDRAL>  (42) 
0

>  <SCORE.SYSTEM.norm>  (42) 
0

>  <SCORE.heavy>  (42) 
25

>  <SCORE.norm>  (42) 
-0.743325

>  <SMILES>  (42) 
Cc1cccc(NC(=O)CCCn2c(=O)[nH]c3ccccc3c2=O)c1

>  <Cycle>  (42) 
228

>  <MolWeight>  (42) 
337.379000

>  <LogP>  (42) 
2.417120

>  <QED>  (42) 
0.749761

>  <SAS>  (42) 
1.9664996010900238

$$$$
design_8
     RDKit          3D

 53 56  0  0  0  0  0  0  0  0999 V2000
  -14.3440   -9.8141   -5.8947 C   0  0  0  0  0  0  0  0  0  0  0  0
  -15.0916   -8.5589   -5.6025 C   0  0  0  0  0  0  0  0  0  0  0  0
  -15.4554   -7.7088   -6.6142 C   0  0  0  0  0  0  0  0  0  0  0  0
  -16.1419   -6.5683   -6.2866 C   0  0  0  0  0  0  0  0  0  0  0  0
  -16.4612   -6.2768   -4.9824 C   0  0  0  0  0  0  0  0  0  0  0  0
  -16.1048   -7.1249   -3.9180 C   0  0  0  0  0  0  0  0  0  0  0  0
  -16.4659   -6.7645   -2.6085 N   0  0  0  0  0  0  0  0  0  0  0  0
  -17.5479   -5.9717   -2.2413 C   0  0  0  0  0  0  0  0  0  0  0  0
  -18.3349   -5.4837   -3.0628 O   0  0  0  0  0  0  0  0  0  0  0  0
  -17.7934   -5.6815   -0.8035 C   0  0  0  0  0  0  0  0  0  0  0  0
  -16.5856   -5.4635    0.0162 C   0  0  0  0  0  0  0  0  0  0  0  0
  -16.7486   -4.8801    1.3696 C   0  0  0  0  0  0  0  0  0  0  0  0
  -17.2993   -3.5543    1.4110 N   0  0  0  0  0  0  0  0  0  0  0  0
  -18.5541   -3.3000    1.7754 C   0  0  0  0  0  0  0  0  0  0  0  0
  -19.3262   -4.2234    2.0833 O   0  0  0  0  0  0  0  0  0  0  0  0
  -19.0689   -2.0429    1.8333 N   0  0  0  0  0  0  0  0  0  0  0  0
  -18.2598   -1.0219    1.5033 C   0  0  0  0  0  0  0  0  0  0  0  0
  -18.7007    0.2894    1.5339 C   0  0  0  0  0  0  0  0  0  0  0  0
  -17.8508    1.3181    1.1905 C   0  0  0  0  0  0  0  0  0  0  0  0
  -16.5444    1.1060    0.8061 C   0  0  0  0  0  0  0  0  0  0  0  0
  -16.0926   -0.1941    0.7712 C   0  0  0  0  0  0  0  0  0  0  0  0
  -16.9534   -1.2371    1.1191 C   0  0  0  0  0  0  0  0  0  0  0  0
  -16.4785   -2.5075    1.0750 C   0  0  0  0  0  0  0  0  0  0  0  0
  -15.2797   -2.7761    0.7281 O   0  0  0  0  0  0  0  0  0  0  0  0
  -15.4196   -8.2574   -4.2724 C   0  0  0  0  0  0  0  0  0  0  0  0
  -13.3809   -9.7898   -5.3848 H   0  0  0  0  0  0  0  0  0  0  0  0
  -14.9192  -10.6705   -5.5429 H   0  0  0  0  0  0  0  0  0  0  0  0
  -14.1834   -9.9002   -6.9694 H   0  0  0  0  0  0  0  0  0  0  0  0
  -15.2057   -7.9335   -7.6511 H   0  0  0  0  0  0  0  0  0  0  0  0
  -16.4404   -5.8790   -7.0765 H   0  0  0  0  0  0  0  0  0  0  0  0
  -17.0081   -5.3592   -4.7655 H   0  0  0  0  0  0  0  0  0  0  0  0
  -15.8832   -7.1152   -1.8618 H   0  0  0  0  0  0  0  0  0  0  0  0
  -18.2739   -6.5713   -0.3968 H   0  0  0  0  0  0  0  0  0  0  0  0
  -18.4085   -4.7837   -0.7417 H   0  0  0  0  0  0  0  0  0  0  0  0
  -16.0208   -4.7108   -0.5338 H   0  0  0  0  0  0  0  0  0  0  0  0
  -16.0989   -6.4312    0.1380 H   0  0  0  0  0  0  0  0  0  0  0  0
  -15.7430   -4.7983    1.7821 H   0  0  0  0  0  0  0  0  0  0  0  0
  -17.4061   -5.5352    1.9411 H   0  0  0  0  0  0  0  0  0  0  0  0
  -20.0256   -1.8821    2.1144 H   0  0  0  0  0  0  0  0  0  0  0  0
  -19.7259    0.5097    1.8313 H   0  0  0  0  0  0  0  0  0  0  0  0
  -18.2268    2.3407    1.2242 H   0  0  0  0  0  0  0  0  0  0  0  0
  -15.8923    1.9377    0.5393 H   0  0  0  0  0  0  0  0  0  0  0  0
  -15.1171   -8.9522   -3.4889 H   0  0  0  0  0  0  0  0  0  0  0  0
  -15.1280   -2.3111   -1.1885 O   0  0  0  0  0  0  0  0  0  0  0  0
  -15.0442   -0.9882   -0.9191 C   0  0  0  0  0  0  0  0  0  0  0  0
  -14.9385   -0.2962   -2.1178 C   0  0  0  0  0  0  0  0  0  0  0  0
  -14.9658   -1.2879   -3.1021 C   0  0  0  0  0  0  0  0  0  0  0  0
  -15.0820   -2.4923   -2.4828 N   0  0  0  0  0  0  0  0  0  0  0  0
  -15.0668   -0.4084    0.4731 C   0  0  0  0  0  0  0  0  0  0  0  0
  -14.8541    0.7700   -2.2514 H   0  0  0  0  0  0  0  0  0  0  0  0
  -14.9057   -1.1369   -4.1695 H   0  0  0  0  0  0  0  0  0  0  0  0
  -14.6404   -1.1207    1.1791 H   0  0  0  0  0  0  0  0  0  0  0  0
  -14.4862    0.5130    0.5133 H   0  0  0  0  0  0  0  0  0  0  0  0
  1  2  1  0
  2  3  2  0
  3  4  1  0
  4  5  2  0
  5  6  1  0
  6  7  1  0
  7  8  1  0
  8  9  2  0
  8 10  1  0
 10 11  1  0
 11 12  1  0
 12 13  1  0
 13 14  1  0
 14 15  2  0
 14 16  1  0
 16 17  1  0
 17 18  2  0
 18 19  1  0
 19 20  2  0
 20 21  1  0
 21 22  2  0
 22 23  1  0
 23 24  2  0
  6 25  2  0
  2 25  1  0
 13 23  1  0
 17 22  1  0
  1 26  1  0
  1 27  1  0
  1 28  1  0
  3 29  1  0
  4 30  1  0
  5 31  1  0
  7 32  1  0
 10 33  1  0
 10 34  1  0
 11 35  1  0
 11 36  1  0
 12 37  1  0
 12 38  1  0
 16 39  1  0
 18 40  1  0
 19 41  1  0
 20 42  1  0
 25 43  1  0
 44 45  1  0
 44 48  1  0
 45 46  2  0
 45 49  1  0
 46 47  1  0
 46 50  1  0
 47 48  2  0
 47 51  1  0
 49 52  1  0
 49 53  1  0
 21 49  1  0
M  END
>  <CHROM.1>  (43) 
26.90528258,37.87719743,166.66736792,-62.50261021,104.80548779,-16.93186781
-4.30841246,-1.13594729,-1.09322767,1.10604832,0.33796808

>  <Name>  (43) 
design_8

>  <RI>  (43) 
40019600.000000

>  <Rbt.Current_Directory>  (43) 
/pylon5/mc5pksp/smaltr/gateway_workdirs/PROCESS_93251df5-8da2-4fa9-b874-71853b29d1ad

>  <Rbt.Executable>  (43) 
rbdock ($Id: //depot/dev/client3/rdock/2013.1/src/exe/rbdock.cxx#4 $)

>  <Rbt.Library>  (43) 
libRbt.so (2013.1, Build901 2013/11/27)

>  <Rbt.Parameter_File>  (43) 
/home/smaltr/software/rDock_2013.1_src//data/scripts/dock.prm

>  <Rbt.Receptor>  (43) 
/pylon5/mc5pksp/smaltr/gateway_workdirs/PROCESS_93251df5-8da2-4fa9-b874-71853b29d1ad/output/SnD-Target-Sep02/cavity/pocket_docking.prm

>  <SCORE>  (43) 
-18.583100

>  <SCORE.INTER>  (43) 
-20.142300

>  <SCORE.INTER.CONST>  (43) 
1

>  <SCORE.INTER.POLAR>  (43) 
-1.412400

>  <SCORE.INTER.REPUL>  (43) 
0

>  <SCORE.INTER.ROT>  (43) 
5

>  <SCORE.INTER.VDW>  (43) 
-25.740100

>  <SCORE.INTER.norm>  (43) 
-0.805690

>  <SCORE.INTRA>  (43) 
1.559130

>  <SCORE.INTRA.DIHEDRAL>  (43) 
3.626300

>  <SCORE.INTRA.DIHEDRAL.0>  (43) 
3.606730

>  <SCORE.INTRA.POLAR>  (43) 
0

>  <SCORE.INTRA.POLAR.0>  (43) 
0

>  <SCORE.INTRA.REPUL>  (43) 
0

>  <SCORE.INTRA.REPUL.0>  (43) 
0

>  <SCORE.INTRA.VDW>  (43) 
-0.254023

>  <SCORE.INTRA.VDW.0>  (43) 
-0.668565

>  <SCORE.INTRA.norm>  (43) 
0.062365

>  <SCORE.RESTR>  (43) 
0

>  <SCORE.RESTR.CAVITY>  (43) 
0

>  <SCORE.RESTR.norm>  (43) 
0

>  <SCORE.SYSTEM>  (43) 
0

>  <SCORE.SYSTEM.CONST>  (43) 
0

>  <SCORE.SYSTEM.DIHEDRAL>  (43) 
0

>  <SCORE.SYSTEM.norm>  (43) 
0

>  <SCORE.heavy>  (43) 
25

>  <SCORE.norm>  (43) 
-0.743325

>  <SMILES>  (43) 
Cc1cccc(NC(=O)CCCn2c(=O)[nH]c3ccccc3c2=O)c1

>  <Cycle>  (43) 
228

>  <MolWeight>  (43) 
337.379000

>  <LogP>  (43) 
2.417120

>  <QED>  (43) 
0.749761

>  <SAS>  (43) 
1.9664996010900238

$$$$
design_8
     RDKit          3D

 53 56  0  0  0  0  0  0  0  0999 V2000
  -14.3440   -9.8141   -5.8947 C   0  0  0  0  0  0  0  0  0  0  0  0
  -15.0916   -8.5589   -5.6025 C   0  0  0  0  0  0  0  0  0  0  0  0
  -15.4554   -7.7088   -6.6142 C   0  0  0  0  0  0  0  0  0  0  0  0
  -16.1419   -6.5683   -6.2866 C   0  0  0  0  0  0  0  0  0  0  0  0
  -16.4612   -6.2768   -4.9824 C   0  0  0  0  0  0  0  0  0  0  0  0
  -16.1048   -7.1249   -3.9180 C   0  0  0  0  0  0  0  0  0  0  0  0
  -16.4659   -6.7645   -2.6085 N   0  0  0  0  0  0  0  0  0  0  0  0
  -17.5479   -5.9717   -2.2413 C   0  0  0  0  0  0  0  0  0  0  0  0
  -18.3349   -5.4837   -3.0628 O   0  0  0  0  0  0  0  0  0  0  0  0
  -17.7934   -5.6815   -0.8035 C   0  0  0  0  0  0  0  0  0  0  0  0
  -16.5856   -5.4635    0.0162 C   0  0  0  0  0  0  0  0  0  0  0  0
  -16.7486   -4.8801    1.3696 C   0  0  0  0  0  0  0  0  0  0  0  0
  -17.2993   -3.5543    1.4110 N   0  0  0  0  0  0  0  0  0  0  0  0
  -18.5541   -3.3000    1.7754 C   0  0  0  0  0  0  0  0  0  0  0  0
  -19.3262   -4.2234    2.0833 O   0  0  0  0  0  0  0  0  0  0  0  0
  -19.0689   -2.0429    1.8333 N   0  0  0  0  0  0  0  0  0  0  0  0
  -18.2598   -1.0219    1.5033 C   0  0  0  0  0  0  0  0  0  0  0  0
  -18.7007    0.2894    1.5339 C   0  0  0  0  0  0  0  0  0  0  0  0
  -17.8508    1.3181    1.1905 C   0  0  0  0  0  0  0  0  0  0  0  0
  -16.5444    1.1060    0.8061 C   0  0  0  0  0  0  0  0  0  0  0  0
  -16.0926   -0.1941    0.7712 C   0  0  0  0  0  0  0  0  0  0  0  0
  -16.9534   -1.2371    1.1191 C   0  0  0  0  0  0  0  0  0  0  0  0
  -16.4785   -2.5075    1.0750 C   0  0  0  0  0  0  0  0  0  0  0  0
  -15.2797   -2.7761    0.7281 O   0  0  0  0  0  0  0  0  0  0  0  0
  -15.4196   -8.2574   -4.2724 C   0  0  0  0  0  0  0  0  0  0  0  0
  -13.3809   -9.7898   -5.3848 H   0  0  0  0  0  0  0  0  0  0  0  0
  -14.9192  -10.6705   -5.5429 H   0  0  0  0  0  0  0  0  0  0  0  0
  -14.1834   -9.9002   -6.9694 H   0  0  0  0  0  0  0  0  0  0  0  0
  -15.2057   -7.9335   -7.6511 H   0  0  0  0  0  0  0  0  0  0  0  0
  -16.4404   -5.8790   -7.0765 H   0  0  0  0  0  0  0  0  0  0  0  0
  -17.0081   -5.3592   -4.7655 H   0  0  0  0  0  0  0  0  0  0  0  0
  -15.8832   -7.1152   -1.8618 H   0  0  0  0  0  0  0  0  0  0  0  0
  -18.2739   -6.5713   -0.3968 H   0  0  0  0  0  0  0  0  0  0  0  0
  -18.4085   -4.7837   -0.7417 H   0  0  0  0  0  0  0  0  0  0  0  0
  -16.0208   -4.7108   -0.5338 H   0  0  0  0  0  0  0  0  0  0  0  0
  -16.0989   -6.4312    0.1380 H   0  0  0  0  0  0  0  0  0  0  0  0
  -15.7430   -4.7983    1.7821 H   0  0  0  0  0  0  0  0  0  0  0  0
  -17.4061   -5.5352    1.9411 H   0  0  0  0  0  0  0  0  0  0  0  0
  -20.0256   -1.8821    2.1144 H   0  0  0  0  0  0  0  0  0  0  0  0
  -18.2268    2.3407    1.2242 H   0  0  0  0  0  0  0  0  0  0  0  0
  -15.8923    1.9377    0.5393 H   0  0  0  0  0  0  0  0  0  0  0  0
  -15.0663   -0.4085    0.4730 H   0  0  0  0  0  0  0  0  0  0  0  0
  -15.1171   -8.9522   -3.4889 H   0  0  0  0  0  0  0  0  0  0  0  0
  -20.4338    2.6267    0.6475 O   0  0  0  0  0  0  0  0  0  0  0  0
  -20.4263    1.2771    0.7381 C   0  0  0  0  0  0  0  0  0  0  0  0
  -21.1556    0.7563   -0.3219 C   0  0  0  0  0  0  0  0  0  0  0  0
  -21.5888    1.8761   -1.0371 C   0  0  0  0  0  0  0  0  0  0  0  0
  -21.1224    2.9853   -0.4048 N   0  0  0  0  0  0  0  0  0  0  0  0
  -19.7255    0.5096    1.8312 C   0  0  0  0  0  0  0  0  0  0  0  0
  -21.3421   -0.2830   -0.5384 H   0  0  0  0  0  0  0  0  0  0  0  0
  -22.1887    1.8737   -1.9348 H   0  0  0  0  0  0  0  0  0  0  0  0
  -19.7033    1.1021    2.7456 H   0  0  0  0  0  0  0  0  0  0  0  0
  -20.2445   -0.4269    2.0344 H   0  0  0  0  0  0  0  0  0  0  0  0
  1  2  1  0
  2  3  2  0
  3  4  1  0
  4  5  2  0
  5  6  1  0
  6  7  1  0
  7  8  1  0
  8  9  2  0
  8 10  1  0
 10 11  1  0
 11 12  1  0
 12 13  1  0
 13 14  1  0
 14 15  2  0
 14 16  1  0
 16 17  1  0
 17 18  2  0
 18 19  1  0
 19 20  2  0
 20 21  1  0
 21 22  2  0
 22 23  1  0
 23 24  2  0
  6 25  2  0
  2 25  1  0
 13 23  1  0
 17 22  1  0
  1 26  1  0
  1 27  1  0
  1 28  1  0
  3 29  1  0
  4 30  1  0
  5 31  1  0
  7 32  1  0
 10 33  1  0
 10 34  1  0
 11 35  1  0
 11 36  1  0
 12 37  1  0
 12 38  1  0
 16 39  1  0
 19 40  1  0
 20 41  1  0
 21 42  1  0
 25 43  1  0
 44 45  1  0
 44 48  1  0
 45 46  2  0
 45 49  1  0
 46 47  1  0
 46 50  1  0
 47 48  2  0
 47 51  1  0
 49 52  1  0
 49 53  1  0
 18 49  1  0
M  END
>  <CHROM.1>  (44) 
26.90528258,37.87719743,166.66736792,-62.50261021,104.80548779,-16.93186781
-4.30841246,-1.13594729,-1.09322767,1.10604832,0.33796808

>  <Name>  (44) 
design_8

>  <RI>  (44) 
40019600.000000

>  <Rbt.Current_Directory>  (44) 
/pylon5/mc5pksp/smaltr/gateway_workdirs/PROCESS_93251df5-8da2-4fa9-b874-71853b29d1ad

>  <Rbt.Executable>  (44) 
rbdock ($Id: //depot/dev/client3/rdock/2013.1/src/exe/rbdock.cxx#4 $)

>  <Rbt.Library>  (44) 
libRbt.so (2013.1, Build901 2013/11/27)

>  <Rbt.Parameter_File>  (44) 
/home/smaltr/software/rDock_2013.1_src//data/scripts/dock.prm

>  <Rbt.Receptor>  (44) 
/pylon5/mc5pksp/smaltr/gateway_workdirs/PROCESS_93251df5-8da2-4fa9-b874-71853b29d1ad/output/SnD-Target-Sep02/cavity/pocket_docking.prm

>  <SCORE>  (44) 
-18.583100

>  <SCORE.INTER>  (44) 
-20.142300

>  <SCORE.INTER.CONST>  (44) 
1

>  <SCORE.INTER.POLAR>  (44) 
-1.412400

>  <SCORE.INTER.REPUL>  (44) 
0

>  <SCORE.INTER.ROT>  (44) 
5

>  <SCORE.INTER.VDW>  (44) 
-25.740100

>  <SCORE.INTER.norm>  (44) 
-0.805690

>  <SCORE.INTRA>  (44) 
1.559130

>  <SCORE.INTRA.DIHEDRAL>  (44) 
3.626300

>  <SCORE.INTRA.DIHEDRAL.0>  (44) 
3.606730

>  <SCORE.INTRA.POLAR>  (44) 
0

>  <SCORE.INTRA.POLAR.0>  (44) 
0

>  <SCORE.INTRA.REPUL>  (44) 
0

>  <SCORE.INTRA.REPUL.0>  (44) 
0

>  <SCORE.INTRA.VDW>  (44) 
-0.254023

>  <SCORE.INTRA.VDW.0>  (44) 
-0.668565

>  <SCORE.INTRA.norm>  (44) 
0.062365

>  <SCORE.RESTR>  (44) 
0

>  <SCORE.RESTR.CAVITY>  (44) 
0

>  <SCORE.RESTR.norm>  (44) 
0

>  <SCORE.SYSTEM>  (44) 
0

>  <SCORE.SYSTEM.CONST>  (44) 
0

>  <SCORE.SYSTEM.DIHEDRAL>  (44) 
0

>  <SCORE.SYSTEM.norm>  (44) 
0

>  <SCORE.heavy>  (44) 
25

>  <SCORE.norm>  (44) 
-0.743325

>  <SMILES>  (44) 
Cc1cccc(NC(=O)CCCn2c(=O)[nH]c3ccccc3c2=O)c1

>  <Cycle>  (44) 
228

>  <MolWeight>  (44) 
337.379000

>  <LogP>  (44) 
2.417120

>  <QED>  (44) 
0.749761

>  <SAS>  (44) 
1.9664996010900238

$$$$
design_8
     RDKit          3D

 53 56  0  0  0  0  0  0  0  0999 V2000
  -14.3440   -9.8141   -5.8947 C   0  0  0  0  0  0  0  0  0  0  0  0
  -15.0916   -8.5589   -5.6025 C   0  0  0  0  0  0  0  0  0  0  0  0
  -15.4554   -7.7088   -6.6142 C   0  0  0  0  0  0  0  0  0  0  0  0
  -16.1419   -6.5683   -6.2866 C   0  0  0  0  0  0  0  0  0  0  0  0
  -16.4612   -6.2768   -4.9824 C   0  0  0  0  0  0  0  0  0  0  0  0
  -16.1048   -7.1249   -3.9180 C   0  0  0  0  0  0  0  0  0  0  0  0
  -16.4659   -6.7645   -2.6085 N   0  0  0  0  0  0  0  0  0  0  0  0
  -17.5479   -5.9717   -2.2413 C   0  0  0  0  0  0  0  0  0  0  0  0
  -18.3349   -5.4837   -3.0628 O   0  0  0  0  0  0  0  0  0  0  0  0
  -17.7934   -5.6815   -0.8035 C   0  0  0  0  0  0  0  0  0  0  0  0
  -16.5856   -5.4635    0.0162 C   0  0  0  0  0  0  0  0  0  0  0  0
  -16.7486   -4.8801    1.3696 C   0  0  0  0  0  0  0  0  0  0  0  0
  -17.2993   -3.5543    1.4110 N   0  0  0  0  0  0  0  0  0  0  0  0
  -18.5541   -3.3000    1.7754 C   0  0  0  0  0  0  0  0  0  0  0  0
  -19.3262   -4.2234    2.0833 O   0  0  0  0  0  0  0  0  0  0  0  0
  -19.0689   -2.0429    1.8333 N   0  0  0  0  0  0  0  0  0  0  0  0
  -18.2598   -1.0219    1.5033 C   0  0  0  0  0  0  0  0  0  0  0  0
  -18.7007    0.2894    1.5339 C   0  0  0  0  0  0  0  0  0  0  0  0
  -17.8508    1.3181    1.1905 C   0  0  0  0  0  0  0  0  0  0  0  0
  -16.5444    1.1060    0.8061 C   0  0  0  0  0  0  0  0  0  0  0  0
  -16.0926   -0.1941    0.7712 C   0  0  0  0  0  0  0  0  0  0  0  0
  -16.9534   -1.2371    1.1191 C   0  0  0  0  0  0  0  0  0  0  0  0
  -16.4785   -2.5075    1.0750 C   0  0  0  0  0  0  0  0  0  0  0  0
  -15.2797   -2.7761    0.7281 O   0  0  0  0  0  0  0  0  0  0  0  0
  -15.4196   -8.2574   -4.2724 C   0  0  0  0  0  0  0  0  0  0  0  0
  -14.9192  -10.6705   -5.5429 H   0  0  0  0  0  0  0  0  0  0  0  0
  -14.1834   -9.9002   -6.9694 H   0  0  0  0  0  0  0  0  0  0  0  0
  -15.2057   -7.9335   -7.6511 H   0  0  0  0  0  0  0  0  0  0  0  0
  -16.4404   -5.8790   -7.0765 H   0  0  0  0  0  0  0  0  0  0  0  0
  -17.0081   -5.3592   -4.7655 H   0  0  0  0  0  0  0  0  0  0  0  0
  -15.8832   -7.1152   -1.8618 H   0  0  0  0  0  0  0  0  0  0  0  0
  -18.2739   -6.5713   -0.3968 H   0  0  0  0  0  0  0  0  0  0  0  0
  -18.4085   -4.7837   -0.7417 H   0  0  0  0  0  0  0  0  0  0  0  0
  -16.0208   -4.7108   -0.5338 H   0  0  0  0  0  0  0  0  0  0  0  0
  -16.0989   -6.4312    0.1380 H   0  0  0  0  0  0  0  0  0  0  0  0
  -15.7430   -4.7983    1.7821 H   0  0  0  0  0  0  0  0  0  0  0  0
  -17.4061   -5.5352    1.9411 H   0  0  0  0  0  0  0  0  0  0  0  0
  -20.0256   -1.8821    2.1144 H   0  0  0  0  0  0  0  0  0  0  0  0
  -19.7259    0.5097    1.8313 H   0  0  0  0  0  0  0  0  0  0  0  0
  -18.2268    2.3407    1.2242 H   0  0  0  0  0  0  0  0  0  0  0  0
  -15.8923    1.9377    0.5393 H   0  0  0  0  0  0  0  0  0  0  0  0
  -15.0663   -0.4085    0.4730 H   0  0  0  0  0  0  0  0  0  0  0  0
  -15.1171   -8.9522   -3.4889 H   0  0  0  0  0  0  0  0  0  0  0  0
  -11.2434   -9.4111   -4.9146 O   0  0  0  0  0  0  0  0  0  0  0  0
  -12.2047   -9.2253   -5.8479 C   0  0  0  0  0  0  0  0  0  0  0  0
  -13.3863   -9.7899   -5.3877 C   0  0  0  0  0  0  0  0  0  0  0  0
  -13.0623  -10.3152   -4.1338 C   0  0  0  0  0  0  0  0  0  0  0  0
  -11.7490  -10.0572   -3.8962 N   0  0  0  0  0  0  0  0  0  0  0  0
  -11.9804   -8.5140   -7.1589 C   0  0  0  0  0  0  0  0  0  0  0  0
  -13.7285  -10.8363   -3.4628 H   0  0  0  0  0  0  0  0  0  0  0  0
  -12.1757   -7.4489   -7.0432 H   0  0  0  0  0  0  0  0  0  0  0  0
  -10.9477   -8.6458   -7.4811 H   0  0  0  0  0  0  0  0  0  0  0  0
  -12.6401   -8.9137   -7.9289 H   0  0  0  0  0  0  0  0  0  0  0  0
  1  2  1  0
  2  3  2  0
  3  4  1  0
  4  5  2  0
  5  6  1  0
  6  7  1  0
  7  8  1  0
  8  9  2  0
  8 10  1  0
 10 11  1  0
 11 12  1  0
 12 13  1  0
 13 14  1  0
 14 15  2  0
 14 16  1  0
 16 17  1  0
 17 18  2  0
 18 19  1  0
 19 20  2  0
 20 21  1  0
 21 22  2  0
 22 23  1  0
 23 24  2  0
  6 25  2  0
  2 25  1  0
 13 23  1  0
 17 22  1  0
  1 26  1  0
  1 27  1  0
  3 28  1  0
  4 29  1  0
  5 30  1  0
  7 31  1  0
 10 32  1  0
 10 33  1  0
 11 34  1  0
 11 35  1  0
 12 36  1  0
 12 37  1  0
 16 38  1  0
 18 39  1  0
 19 40  1  0
 20 41  1  0
 21 42  1  0
 25 43  1  0
 44 45  1  0
 44 48  1  0
 45 46  2  0
 45 49  1  0
 46 47  1  0
 47 48  2  0
 47 50  1  0
 49 51  1  0
 49 52  1  0
 49 53  1  0
  1 46  1  0
M  END
>  <CHROM.1>  (45) 
26.90528258,37.87719743,166.66736792,-62.50261021,104.80548779,-16.93186781
-4.30841246,-1.13594729,-1.09322767,1.10604832,0.33796808

>  <Name>  (45) 
design_8

>  <RI>  (45) 
40019600.000000

>  <Rbt.Current_Directory>  (45) 
/pylon5/mc5pksp/smaltr/gateway_workdirs/PROCESS_93251df5-8da2-4fa9-b874-71853b29d1ad

>  <Rbt.Executable>  (45) 
rbdock ($Id: //depot/dev/client3/rdock/2013.1/src/exe/rbdock.cxx#4 $)

>  <Rbt.Library>  (45) 
libRbt.so (2013.1, Build901 2013/11/27)

>  <Rbt.Parameter_File>  (45) 
/home/smaltr/software/rDock_2013.1_src//data/scripts/dock.prm

>  <Rbt.Receptor>  (45) 
/pylon5/mc5pksp/smaltr/gateway_workdirs/PROCESS_93251df5-8da2-4fa9-b874-71853b29d1ad/output/SnD-Target-Sep02/cavity/pocket_docking.prm

>  <SCORE>  (45) 
-18.583100

>  <SCORE.INTER>  (45) 
-20.142300

>  <SCORE.INTER.CONST>  (45) 
1

>  <SCORE.INTER.POLAR>  (45) 
-1.412400

>  <SCORE.INTER.REPUL>  (45) 
0

>  <SCORE.INTER.ROT>  (45) 
5

>  <SCORE.INTER.VDW>  (45) 
-25.740100

>  <SCORE.INTER.norm>  (45) 
-0.805690

>  <SCORE.INTRA>  (45) 
1.559130

>  <SCORE.INTRA.DIHEDRAL>  (45) 
3.626300

>  <SCORE.INTRA.DIHEDRAL.0>  (45) 
3.606730

>  <SCORE.INTRA.POLAR>  (45) 
0

>  <SCORE.INTRA.POLAR.0>  (45) 
0

>  <SCORE.INTRA.REPUL>  (45) 
0

>  <SCORE.INTRA.REPUL.0>  (45) 
0

>  <SCORE.INTRA.VDW>  (45) 
-0.254023

>  <SCORE.INTRA.VDW.0>  (45) 
-0.668565

>  <SCORE.INTRA.norm>  (45) 
0.062365

>  <SCORE.RESTR>  (45) 
0

>  <SCORE.RESTR.CAVITY>  (45) 
0

>  <SCORE.RESTR.norm>  (45) 
0

>  <SCORE.SYSTEM>  (45) 
0

>  <SCORE.SYSTEM.CONST>  (45) 
0

>  <SCORE.SYSTEM.DIHEDRAL>  (45) 
0

>  <SCORE.SYSTEM.norm>  (45) 
0

>  <SCORE.heavy>  (45) 
25

>  <SCORE.norm>  (45) 
-0.743325

>  <SMILES>  (45) 
Cc1cccc(NC(=O)CCCn2c(=O)[nH]c3ccccc3c2=O)c1

>  <Cycle>  (45) 
228

>  <MolWeight>  (45) 
337.379000

>  <LogP>  (45) 
2.417120

>  <QED>  (45) 
0.749761

>  <SAS>  (45) 
1.9664996010900238

$$$$
design_8
     RDKit          3D

 51 53  0  0  0  0  0  0  0  0999 V2000
  -14.3440   -9.8141   -5.8947 C   0  0  0  0  0  0  0  0  0  0  0  0
  -15.0916   -8.5589   -5.6025 C   0  0  0  0  0  0  0  0  0  0  0  0
  -15.4554   -7.7088   -6.6142 C   0  0  0  0  0  0  0  0  0  0  0  0
  -16.1419   -6.5683   -6.2866 C   0  0  0  0  0  0  0  0  0  0  0  0
  -16.4612   -6.2768   -4.9824 C   0  0  0  0  0  0  0  0  0  0  0  0
  -16.1048   -7.1249   -3.9180 C   0  0  0  0  0  0  0  0  0  0  0  0
  -16.4659   -6.7645   -2.6085 N   0  0  0  0  0  0  0  0  0  0  0  0
  -17.5479   -5.9717   -2.2413 C   0  0  0  0  0  0  0  0  0  0  0  0
  -18.3349   -5.4837   -3.0628 O   0  0  0  0  0  0  0  0  0  0  0  0
  -17.7934   -5.6815   -0.8035 C   0  0  0  0  0  0  0  0  0  0  0  0
  -16.5856   -5.4635    0.0162 C   0  0  0  0  0  0  0  0  0  0  0  0
  -16.7486   -4.8801    1.3696 C   0  0  0  0  0  0  0  0  0  0  0  0
  -17.2993   -3.5543    1.4110 N   0  0  0  0  0  0  0  0  0  0  0  0
  -18.5541   -3.3000    1.7754 C   0  0  0  0  0  0  0  0  0  0  0  0
  -19.3262   -4.2234    2.0833 O   0  0  0  0  0  0  0  0  0  0  0  0
  -19.0689   -2.0429    1.8333 N   0  0  0  0  0  0  0  0  0  0  0  0
  -18.2598   -1.0219    1.5033 C   0  0  0  0  0  0  0  0  0  0  0  0
  -18.7007    0.2894    1.5339 C   0  0  0  0  0  0  0  0  0  0  0  0
  -17.8508    1.3181    1.1905 C   0  0  0  0  0  0  0  0  0  0  0  0
  -16.5444    1.1060    0.8061 C   0  0  0  0  0  0  0  0  0  0  0  0
  -16.0926   -0.1941    0.7712 C   0  0  0  0  0  0  0  0  0  0  0  0
  -16.9534   -1.2371    1.1191 C   0  0  0  0  0  0  0  0  0  0  0  0
  -16.4785   -2.5075    1.0750 C   0  0  0  0  0  0  0  0  0  0  0  0
  -15.2797   -2.7761    0.7281 O   0  0  0  0  0  0  0  0  0  0  0  0
  -15.4196   -8.2574   -4.2724 C   0  0  0  0  0  0  0  0  0  0  0  0
  -14.9192  -10.6705   -5.5429 H   0  0  0  0  0  0  0  0  0  0  0  0
  -14.1834   -9.9002   -6.9694 H   0  0  0  0  0  0  0  0  0  0  0  0
  -15.2057   -7.9335   -7.6511 H   0  0  0  0  0  0  0  0  0  0  0  0
  -16.4404   -5.8790   -7.0765 H   0  0  0  0  0  0  0  0  0  0  0  0
  -17.0081   -5.3592   -4.7655 H   0  0  0  0  0  0  0  0  0  0  0  0
  -15.8832   -7.1152   -1.8618 H   0  0  0  0  0  0  0  0  0  0  0  0
  -18.2739   -6.5713   -0.3968 H   0  0  0  0  0  0  0  0  0  0  0  0
  -18.4085   -4.7837   -0.7417 H   0  0  0  0  0  0  0  0  0  0  0  0
  -16.0208   -4.7108   -0.5338 H   0  0  0  0  0  0  0  0  0  0  0  0
  -16.0989   -6.4312    0.1380 H   0  0  0  0  0  0  0  0  0  0  0  0
  -15.7430   -4.7983    1.7821 H   0  0  0  0  0  0  0  0  0  0  0  0
  -17.4061   -5.5352    1.9411 H   0  0  0  0  0  0  0  0  0  0  0  0
  -20.0256   -1.8821    2.1144 H   0  0  0  0  0  0  0  0  0  0  0  0
  -19.7259    0.5097    1.8313 H   0  0  0  0  0  0  0  0  0  0  0  0
  -18.2268    2.3407    1.2242 H   0  0  0  0  0  0  0  0  0  0  0  0
  -15.8923    1.9377    0.5393 H   0  0  0  0  0  0  0  0  0  0  0  0
  -15.0663   -0.4085    0.4730 H   0  0  0  0  0  0  0  0  0  0  0  0
  -15.1171   -8.9522   -3.4889 H   0  0  0  0  0  0  0  0  0  0  0  0
  -13.3852   -9.7899   -5.3871 N   0  0  0  0  0  0  0  0  0  0  0  0
  -12.3567  -10.7981   -5.6272 C   0  0  0  0  0  0  0  0  0  0  0  0
  -12.8236  -11.8166   -6.6387 C   0  0  0  0  0  0  0  0  0  0  0  0
  -13.9392  -11.7548   -7.1618 O   0  0  0  0  0  0  0  0  0  0  0  0
  -11.9398  -12.8931   -7.0042 O   0  0  0  0  0  0  0  0  0  0  0  0
  -12.1492  -11.2807   -4.7180 H   0  0  0  0  0  0  0  0  0  0  0  0
  -11.4561  -10.3019   -6.0351 H   0  0  0  0  0  0  0  0  0  0  0  0
  -13.5875   -9.8216   -4.3981 H   0  0  0  0  0  0  0  0  0  0  0  0
  1  2  1  0
  2  3  2  0
  3  4  1  0
  4  5  2  0
  5  6  1  0
  6  7  1  0
  7  8  1  0
  8  9  2  0
  8 10  1  0
 10 11  1  0
 11 12  1  0
 12 13  1  0
 13 14  1  0
 14 15  2  0
 14 16  1  0
 16 17  1  0
 17 18  2  0
 18 19  1  0
 19 20  2  0
 20 21  1  0
 21 22  2  0
 22 23  1  0
 23 24  2  0
  6 25  2  0
  2 25  1  0
 13 23  1  0
 17 22  1  0
  1 26  1  0
  1 27  1  0
  3 28  1  0
  4 29  1  0
  5 30  1  0
  7 31  1  0
 10 32  1  0
 10 33  1  0
 11 34  1  0
 11 35  1  0
 12 36  1  0
 12 37  1  0
 16 38  1  0
 18 39  1  0
 19 40  1  0
 20 41  1  0
 21 42  1  0
 25 43  1  0
 44 45  1  0
 45 46  1  0
 45 49  1  0
 45 50  1  0
 46 47  2  0
 46 48  1  0
 44 51  1  0
  1 44  1  0
M  CHG  1  48  -1
M  END
>  <CHROM.1>  (46) 
26.90528258,37.87719743,166.66736792,-62.50261021,104.80548779,-16.93186781
-4.30841246,-1.13594729,-1.09322767,1.10604832,0.33796808

>  <Name>  (46) 
design_8

>  <RI>  (46) 
40019600.000000

>  <Rbt.Current_Directory>  (46) 
/pylon5/mc5pksp/smaltr/gateway_workdirs/PROCESS_93251df5-8da2-4fa9-b874-71853b29d1ad

>  <Rbt.Executable>  (46) 
rbdock ($Id: //depot/dev/client3/rdock/2013.1/src/exe/rbdock.cxx#4 $)

>  <Rbt.Library>  (46) 
libRbt.so (2013.1, Build901 2013/11/27)

>  <Rbt.Parameter_File>  (46) 
/home/smaltr/software/rDock_2013.1_src//data/scripts/dock.prm

>  <Rbt.Receptor>  (46) 
/pylon5/mc5pksp/smaltr/gateway_workdirs/PROCESS_93251df5-8da2-4fa9-b874-71853b29d1ad/output/SnD-Target-Sep02/cavity/pocket_docking.prm

>  <SCORE>  (46) 
-18.583100

>  <SCORE.INTER>  (46) 
-20.142300

>  <SCORE.INTER.CONST>  (46) 
1

>  <SCORE.INTER.POLAR>  (46) 
-1.412400

>  <SCORE.INTER.REPUL>  (46) 
0

>  <SCORE.INTER.ROT>  (46) 
5

>  <SCORE.INTER.VDW>  (46) 
-25.740100

>  <SCORE.INTER.norm>  (46) 
-0.805690

>  <SCORE.INTRA>  (46) 
1.559130

>  <SCORE.INTRA.DIHEDRAL>  (46) 
3.626300

>  <SCORE.INTRA.DIHEDRAL.0>  (46) 
3.606730

>  <SCORE.INTRA.POLAR>  (46) 
0

>  <SCORE.INTRA.POLAR.0>  (46) 
0

>  <SCORE.INTRA.REPUL>  (46) 
0

>  <SCORE.INTRA.REPUL.0>  (46) 
0

>  <SCORE.INTRA.VDW>  (46) 
-0.254023

>  <SCORE.INTRA.VDW.0>  (46) 
-0.668565

>  <SCORE.INTRA.norm>  (46) 
0.062365

>  <SCORE.RESTR>  (46) 
0

>  <SCORE.RESTR.CAVITY>  (46) 
0

>  <SCORE.RESTR.norm>  (46) 
0

>  <SCORE.SYSTEM>  (46) 
0

>  <SCORE.SYSTEM.CONST>  (46) 
0

>  <SCORE.SYSTEM.DIHEDRAL>  (46) 
0

>  <SCORE.SYSTEM.norm>  (46) 
0

>  <SCORE.heavy>  (46) 
25

>  <SCORE.norm>  (46) 
-0.743325

>  <SMILES>  (46) 
Cc1cccc(NC(=O)CCCn2c(=O)[nH]c3ccccc3c2=O)c1

>  <Cycle>  (46) 
228

>  <MolWeight>  (46) 
337.379000

>  <LogP>  (46) 
2.417120

>  <QED>  (46) 
0.749761

>  <SAS>  (46) 
1.5700294211158861

$$$$
design_5
     RDKit          3D

 57 60  0  0  0  0  0  0  0  0999 V2000
  -14.4367  -10.3073   -3.8299 C   0  0  0  0  0  0  0  0  0  0  0  0
  -13.4267   -9.2153   -3.4792 C   0  0  0  0  0  0  0  0  0  0  0  0
  -12.9397   -8.5316   -4.6306 N   0  0  0  0  0  0  0  0  0  0  0  0
  -11.7244   -8.7691   -5.1757 N   0  0  0  0  0  0  0  0  0  0  0  0
  -11.5322   -7.9795   -6.2088 N   0  0  0  0  0  0  0  0  0  0  0  0
  -12.6053   -7.2377   -6.3369 N   0  0  0  0  0  0  0  0  0  0  0  0
  -13.5062   -7.5808   -5.3400 C   0  0  0  0  0  0  0  0  0  0  0  0
  -14.7808   -6.8978   -5.2230 C   0  0  0  0  0  0  0  0  0  0  0  0
  -15.4762   -6.3429   -6.2601 C   0  0  0  0  0  0  0  0  0  0  0  0
  -16.7332   -5.7288   -6.0896 C   0  0  0  0  0  0  0  0  0  0  0  0
  -17.2583   -5.6977   -4.8256 C   0  0  0  0  0  0  0  0  0  0  0  0
  -16.6113   -6.2367   -3.7332 C   0  0  0  0  0  0  0  0  0  0  0  0
  -17.1840   -6.1895   -2.3992 C   0  0  0  0  0  0  0  0  0  0  0  0
  -16.5988   -6.7987   -1.4815 O   0  0  0  0  0  0  0  0  0  0  0  0
  -18.3569   -5.4810   -2.1510 N   0  0  0  0  0  0  0  0  0  0  0  0
  -18.9970   -5.3850   -0.8550 C   0  0  0  0  0  0  0  0  0  0  0  0
  -18.1516   -4.5489    0.0246 C   0  0  0  0  0  0  0  0  0  0  0  0
  -17.4216   -5.1476    1.0347 C   0  0  0  0  0  0  0  0  0  0  0  0
  -16.6487   -4.3531    1.8414 C   0  0  0  0  0  0  0  0  0  0  0  0
  -16.5685   -2.9765    1.6869 C   0  0  0  0  0  0  0  0  0  0  0  0
  -17.2827   -2.3623    0.6928 C   0  0  0  0  0  0  0  0  0  0  0  0
  -17.3041   -1.0011    0.3884 N   0  0  0  0  0  0  0  0  0  0  0  0
  -17.7299   -0.0113    1.2774 C   0  0  0  0  0  0  0  0  0  0  0  0
  -17.7156    1.4093    0.8427 C   0  0  0  0  0  0  0  0  0  0  0  0
  -18.1232   -0.2539    2.4215 O   0  0  0  0  0  0  0  0  0  0  0  0
  -18.0707   -3.1937   -0.1256 C   0  0  0  0  0  0  0  0  0  0  0  0
  -15.3889   -6.8220   -3.9647 C   0  0  0  0  0  0  0  0  0  0  0  0
  -15.3333   -9.8510   -4.2494 H   0  0  0  0  0  0  0  0  0  0  0  0
  -13.9990  -10.9864   -4.5616 H   0  0  0  0  0  0  0  0  0  0  0  0
  -14.6995  -10.8626   -2.9296 H   0  0  0  0  0  0  0  0  0  0  0  0
  -12.5760   -9.6948   -2.9949 H   0  0  0  0  0  0  0  0  0  0  0  0
  -13.9073   -8.4925   -2.8199 H   0  0  0  0  0  0  0  0  0  0  0  0
  -15.0414   -6.3765   -7.2591 H   0  0  0  0  0  0  0  0  0  0  0  0
  -17.2682   -5.2941   -6.9339 H   0  0  0  0  0  0  0  0  0  0  0  0
  -18.2298   -5.2266   -4.6761 H   0  0  0  0  0  0  0  0  0  0  0  0
  -18.7906   -5.0017   -2.9270 H   0  0  0  0  0  0  0  0  0  0  0  0
  -19.1169   -6.3786   -0.4232 H   0  0  0  0  0  0  0  0  0  0  0  0
  -19.9809   -4.9285   -0.9629 H   0  0  0  0  0  0  0  0  0  0  0  0
  -17.4597   -6.2264    1.1861 H   0  0  0  0  0  0  0  0  0  0  0  0
  -16.0724   -4.8230    2.6384 H   0  0  0  0  0  0  0  0  0  0  0  0
  -15.9398   -2.3865    2.3538 H   0  0  0  0  0  0  0  0  0  0  0  0
  -16.9934   -0.7143   -0.5288 H   0  0  0  0  0  0  0  0  0  0  0  0
  -17.7477    1.4571   -0.2458 H   0  0  0  0  0  0  0  0  0  0  0  0
  -18.5828    1.9249    1.2554 H   0  0  0  0  0  0  0  0  0  0  0  0
  -18.6491   -2.7296   -0.9245 H   0  0  0  0  0  0  0  0  0  0  0  0
  -14.8603   -7.2541   -3.1150 H   0  0  0  0  0  0  0  0  0  0  0  0
  -14.4405    2.0164    1.2555 N   0  0  0  0  0  0  0  0  0  0  0  0
  -14.6035    3.0461    2.0639 C   0  0  0  0  0  0  0  0  0  0  0  0
  -13.5019    3.6254    2.4958 N   0  0  0  0  0  0  0  0  0  0  0  0
  -15.7390    3.5646    2.4904 N   0  0  0  0  0  0  0  0  0  0  0  0
  -16.8495    2.9758    2.0514 C   0  0  0  0  0  0  0  0  0  0  0  0
  -16.8098    1.8861    1.1981 C   0  0  0  0  0  0  0  0  0  0  0  0
  -15.5566    1.4344    0.8204 C   0  0  0  0  0  0  0  0  0  0  0  0
  -17.8073    3.3632    2.3730 H   0  0  0  0  0  0  0  0  0  0  0  0
  -15.4763    0.5854    0.1547 H   0  0  0  0  0  0  0  0  0  0  0  0
  -13.6129    4.4014    3.1053 H   0  0  0  0  0  0  0  0  0  0  0  0
  -12.6419    3.2435    2.1810 H   0  0  0  0  0  0  0  0  0  0  0  0
  1  2  1  0
  2  3  1  0
  3  4  1  0
  4  5  2  0
  5  6  1  0
  6  7  2  0
  7  8  1  0
  8  9  2  0
  9 10  1  0
 10 11  2  0
 11 12  1  0
 12 13  1  0
 13 14  2  0
 13 15  1  0
 15 16  1  0
 16 17  1  0
 17 18  2  0
 18 19  1  0
 19 20  2  0
 20 21  1  0
 21 22  1  0
 22 23  1  0
 23 24  1  0
 23 25  2  0
 21 26  2  0
 12 27  2  0
  3  7  1  0
  8 27  1  0
 17 26  1  0
  1 28  1  0
  1 29  1  0
  1 30  1  0
  2 31  1  0
  2 32  1  0
  9 33  1  0
 10 34  1  0
 11 35  1  0
 15 36  1  0
 16 37  1  0
 16 38  1  0
 18 39  1  0
 19 40  1  0
 20 41  1  0
 22 42  1  0
 24 43  1  0
 24 44  1  0
 26 45  1  0
 27 46  1  0
 47 48  2  0
 47 53  1  0
 48 49  1  0
 49 56  1  0
 49 57  1  0
 48 50  1  0
 50 51  2  0
 51 54  1  0
 51 52  1  0
 52 53  2  0
 53 55  1  0
 24 52  1  0
M  END
>  <CHROM.1>  (47) 
-102.38250819,-152.21691716,173.82874654,70.04577620,-106.58662457,-60.89933643
-16.01507382,-5.30683905,-2.26668205,0.46565807,-1.08168991,2.85957035

>  <Name>  (47) 
design_5

>  <RI>  (47) 
14243500.000000

>  <Rbt.Current_Directory>  (47) 
/pylon5/mc5pksp/smaltr/gateway_workdirs/PROCESS_93251df5-8da2-4fa9-b874-71853b29d1ad

>  <Rbt.Executable>  (47) 
rbdock ($Id: //depot/dev/client3/rdock/2013.1/src/exe/rbdock.cxx#4 $)

>  <Rbt.Library>  (47) 
libRbt.so (2013.1, Build901 2013/11/27)

>  <Rbt.Parameter_File>  (47) 
/home/smaltr/software/rDock_2013.1_src//data/scripts/dock.prm

>  <Rbt.Receptor>  (47) 
/pylon5/mc5pksp/smaltr/gateway_workdirs/PROCESS_93251df5-8da2-4fa9-b874-71853b29d1ad/output/SnD-Target-Sep02/cavity/pocket_docking.prm

>  <SCORE>  (47) 
-15.674100

>  <SCORE.INTER>  (47) 
-20.025600

>  <SCORE.INTER.CONST>  (47) 
1

>  <SCORE.INTER.POLAR>  (47) 
-1.687890

>  <SCORE.INTER.REPUL>  (47) 
0

>  <SCORE.INTER.ROT>  (47) 
6

>  <SCORE.INTER.VDW>  (47) 
-25.686800

>  <SCORE.INTER.norm>  (47) 
-0.741690

>  <SCORE.INTRA>  (47) 
4.351540

>  <SCORE.INTRA.DIHEDRAL>  (47) 
10.302700

>  <SCORE.INTRA.DIHEDRAL.0>  (47) 
6.485490

>  <SCORE.INTRA.POLAR>  (47) 
0

>  <SCORE.INTRA.POLAR.0>  (47) 
0

>  <SCORE.INTRA.REPUL>  (47) 
0

>  <SCORE.INTRA.REPUL.0>  (47) 
0

>  <SCORE.INTRA.VDW>  (47) 
-0.799816

>  <SCORE.INTRA.VDW.0>  (47) 
-1.971680

>  <SCORE.INTRA.norm>  (47) 
0.161168

>  <SCORE.RESTR>  (47) 
0

>  <SCORE.RESTR.CAVITY>  (47) 
0

>  <SCORE.RESTR.norm>  (47) 
0

>  <SCORE.SYSTEM>  (47) 
0

>  <SCORE.SYSTEM.CONST>  (47) 
0

>  <SCORE.SYSTEM.DIHEDRAL>  (47) 
0

>  <SCORE.SYSTEM.norm>  (47) 
0

>  <SCORE.heavy>  (47) 
27

>  <SCORE.norm>  (47) 
-0.580522

>  <SMILES>  (47) 
CCn1nnnc1-c1cccc(C(=O)NCc2cccc(NC(C)=O)c2)c1

>  <Cycle>  (47) 
228

>  <MolWeight>  (47) 
364.409000

>  <LogP>  (47) 
2.248400

>  <QED>  (47) 
0.698403

>  <SAS>  (47) 
1

$$$$
design_5
     RDKit          3D

 57 60  0  0  0  0  0  0  0  0999 V2000
  -14.4367  -10.3073   -3.8299 C   0  0  0  0  0  0  0  0  0  0  0  0
  -13.4267   -9.2153   -3.4792 C   0  0  0  0  0  0  0  0  0  0  0  0
  -12.9397   -8.5316   -4.6306 N   0  0  0  0  0  0  0  0  0  0  0  0
  -11.7244   -8.7691   -5.1757 N   0  0  0  0  0  0  0  0  0  0  0  0
  -11.5322   -7.9795   -6.2088 N   0  0  0  0  0  0  0  0  0  0  0  0
  -12.6053   -7.2377   -6.3369 N   0  0  0  0  0  0  0  0  0  0  0  0
  -13.5062   -7.5808   -5.3400 C   0  0  0  0  0  0  0  0  0  0  0  0
  -14.7808   -6.8978   -5.2230 C   0  0  0  0  0  0  0  0  0  0  0  0
  -15.4762   -6.3429   -6.2601 C   0  0  0  0  0  0  0  0  0  0  0  0
  -16.7332   -5.7288   -6.0896 C   0  0  0  0  0  0  0  0  0  0  0  0
  -17.2583   -5.6977   -4.8256 C   0  0  0  0  0  0  0  0  0  0  0  0
  -16.6113   -6.2367   -3.7332 C   0  0  0  0  0  0  0  0  0  0  0  0
  -17.1840   -6.1895   -2.3992 C   0  0  0  0  0  0  0  0  0  0  0  0
  -16.5988   -6.7987   -1.4815 O   0  0  0  0  0  0  0  0  0  0  0  0
  -18.3569   -5.4810   -2.1510 N   0  0  0  0  0  0  0  0  0  0  0  0
  -18.9970   -5.3850   -0.8550 C   0  0  0  0  0  0  0  0  0  0  0  0
  -18.1516   -4.5489    0.0246 C   0  0  0  0  0  0  0  0  0  0  0  0
  -17.4216   -5.1476    1.0347 C   0  0  0  0  0  0  0  0  0  0  0  0
  -16.6487   -4.3531    1.8414 C   0  0  0  0  0  0  0  0  0  0  0  0
  -16.5685   -2.9765    1.6869 C   0  0  0  0  0  0  0  0  0  0  0  0
  -17.2827   -2.3623    0.6928 C   0  0  0  0  0  0  0  0  0  0  0  0
  -17.3041   -1.0011    0.3884 N   0  0  0  0  0  0  0  0  0  0  0  0
  -17.7299   -0.0113    1.2774 C   0  0  0  0  0  0  0  0  0  0  0  0
  -17.7156    1.4093    0.8427 C   0  0  0  0  0  0  0  0  0  0  0  0
  -18.1232   -0.2539    2.4215 O   0  0  0  0  0  0  0  0  0  0  0  0
  -18.0707   -3.1937   -0.1256 C   0  0  0  0  0  0  0  0  0  0  0  0
  -15.3889   -6.8220   -3.9647 C   0  0  0  0  0  0  0  0  0  0  0  0
  -13.9990  -10.9864   -4.5616 H   0  0  0  0  0  0  0  0  0  0  0  0
  -14.6995  -10.8626   -2.9296 H   0  0  0  0  0  0  0  0  0  0  0  0
  -12.5760   -9.6948   -2.9949 H   0  0  0  0  0  0  0  0  0  0  0  0
  -13.9073   -8.4925   -2.8199 H   0  0  0  0  0  0  0  0  0  0  0  0
  -15.0414   -6.3765   -7.2591 H   0  0  0  0  0  0  0  0  0  0  0  0
  -17.2682   -5.2941   -6.9339 H   0  0  0  0  0  0  0  0  0  0  0  0
  -18.2298   -5.2266   -4.6761 H   0  0  0  0  0  0  0  0  0  0  0  0
  -18.7906   -5.0017   -2.9270 H   0  0  0  0  0  0  0  0  0  0  0  0
  -19.1169   -6.3786   -0.4232 H   0  0  0  0  0  0  0  0  0  0  0  0
  -19.9809   -4.9285   -0.9629 H   0  0  0  0  0  0  0  0  0  0  0  0
  -17.4597   -6.2264    1.1861 H   0  0  0  0  0  0  0  0  0  0  0  0
  -16.0724   -4.8230    2.6384 H   0  0  0  0  0  0  0  0  0  0  0  0
  -15.9398   -2.3865    2.3538 H   0  0  0  0  0  0  0  0  0  0  0  0
  -16.9934   -0.7143   -0.5288 H   0  0  0  0  0  0  0  0  0  0  0  0
  -16.8044    1.8889    1.2002 H   0  0  0  0  0  0  0  0  0  0  0  0
  -17.7477    1.4571   -0.2458 H   0  0  0  0  0  0  0  0  0  0  0  0
  -18.5828    1.9249    1.2554 H   0  0  0  0  0  0  0  0  0  0  0  0
  -18.6491   -2.7296   -0.9245 H   0  0  0  0  0  0  0  0  0  0  0  0
  -14.8603   -7.2541   -3.1150 H   0  0  0  0  0  0  0  0  0  0  0  0
  -17.6260   -9.2881   -4.0644 N   0  0  0  0  0  0  0  0  0  0  0  0
  -17.4992   -8.7500   -5.2623 C   0  0  0  0  0  0  0  0  0  0  0  0
  -18.5831   -8.1987   -5.7689 N   0  0  0  0  0  0  0  0  0  0  0  0
  -16.4153   -8.6982   -6.0124 N   0  0  0  0  0  0  0  0  0  0  0  0
  -15.3224   -9.2568   -5.4963 C   0  0  0  0  0  0  0  0  0  0  0  0
  -15.3280   -9.8537   -4.2469 C   0  0  0  0  0  0  0  0  0  0  0  0
  -16.5276   -9.8433   -3.5556 C   0  0  0  0  0  0  0  0  0  0  0  0
  -14.4068   -9.2413   -6.0728 H   0  0  0  0  0  0  0  0  0  0  0  0
  -16.5798  -10.2981   -2.5753 H   0  0  0  0  0  0  0  0  0  0  0  0
  -18.4992   -7.7910   -6.6705 H   0  0  0  0  0  0  0  0  0  0  0  0
  -19.4043   -8.2318   -5.2130 H   0  0  0  0  0  0  0  0  0  0  0  0
  1  2  1  0
  2  3  1  0
  3  4  1  0
  4  5  2  0
  5  6  1  0
  6  7  2  0
  7  8  1  0
  8  9  2  0
  9 10  1  0
 10 11  2  0
 11 12  1  0
 12 13  1  0
 13 14  2  0
 13 15  1  0
 15 16  1  0
 16 17  1  0
 17 18  2  0
 18 19  1  0
 19 20  2  0
 20 21  1  0
 21 22  1  0
 22 23  1  0
 23 24  1  0
 23 25  2  0
 21 26  2  0
 12 27  2  0
  3  7  1  0
  8 27  1  0
 17 26  1  0
  1 28  1  0
  1 29  1  0
  2 30  1  0
  2 31  1  0
  9 32  1  0
 10 33  1  0
 11 34  1  0
 15 35  1  0
 16 36  1  0
 16 37  1  0
 18 38  1  0
 19 39  1  0
 20 40  1  0
 22 41  1  0
 24 42  1  0
 24 43  1  0
 24 44  1  0
 26 45  1  0
 27 46  1  0
 47 48  2  0
 47 53  1  0
 48 49  1  0
 49 56  1  0
 49 57  1  0
 48 50  1  0
 50 51  2  0
 51 54  1  0
 51 52  1  0
 52 53  2  0
 53 55  1  0
  1 52  1  0
M  END
>  <CHROM.1>  (48) 
-102.38250819,-152.21691716,173.82874654,70.04577620,-106.58662457,-60.89933643
-16.01507382,-5.30683905,-2.26668205,0.46565807,-1.08168991,2.85957035

>  <Name>  (48) 
design_5

>  <RI>  (48) 
14243500.000000

>  <Rbt.Current_Directory>  (48) 
/pylon5/mc5pksp/smaltr/gateway_workdirs/PROCESS_93251df5-8da2-4fa9-b874-71853b29d1ad

>  <Rbt.Executable>  (48) 
rbdock ($Id: //depot/dev/client3/rdock/2013.1/src/exe/rbdock.cxx#4 $)

>  <Rbt.Library>  (48) 
libRbt.so (2013.1, Build901 2013/11/27)

>  <Rbt.Parameter_File>  (48) 
/home/smaltr/software/rDock_2013.1_src//data/scripts/dock.prm

>  <Rbt.Receptor>  (48) 
/pylon5/mc5pksp/smaltr/gateway_workdirs/PROCESS_93251df5-8da2-4fa9-b874-71853b29d1ad/output/SnD-Target-Sep02/cavity/pocket_docking.prm

>  <SCORE>  (48) 
-15.674100

>  <SCORE.INTER>  (48) 
-20.025600

>  <SCORE.INTER.CONST>  (48) 
1

>  <SCORE.INTER.POLAR>  (48) 
-1.687890

>  <SCORE.INTER.REPUL>  (48) 
0

>  <SCORE.INTER.ROT>  (48) 
6

>  <SCORE.INTER.VDW>  (48) 
-25.686800

>  <SCORE.INTER.norm>  (48) 
-0.741690

>  <SCORE.INTRA>  (48) 
4.351540

>  <SCORE.INTRA.DIHEDRAL>  (48) 
10.302700

>  <SCORE.INTRA.DIHEDRAL.0>  (48) 
6.485490

>  <SCORE.INTRA.POLAR>  (48) 
0

>  <SCORE.INTRA.POLAR.0>  (48) 
0

>  <SCORE.INTRA.REPUL>  (48) 
0

>  <SCORE.INTRA.REPUL.0>  (48) 
0

>  <SCORE.INTRA.VDW>  (48) 
-0.799816

>  <SCORE.INTRA.VDW.0>  (48) 
-1.971680

>  <SCORE.INTRA.norm>  (48) 
0.161168

>  <SCORE.RESTR>  (48) 
0

>  <SCORE.RESTR.CAVITY>  (48) 
0

>  <SCORE.RESTR.norm>  (48) 
0

>  <SCORE.SYSTEM>  (48) 
0

>  <SCORE.SYSTEM.CONST>  (48) 
0

>  <SCORE.SYSTEM.DIHEDRAL>  (48) 
0

>  <SCORE.SYSTEM.norm>  (48) 
0

>  <SCORE.heavy>  (48) 
27

>  <SCORE.norm>  (48) 
-0.580522

>  <SMILES>  (48) 
CCn1nnnc1-c1cccc(C(=O)NCc2cccc(NC(C)=O)c2)c1

>  <Cycle>  (48) 
228

>  <MolWeight>  (48) 
364.409000

>  <LogP>  (48) 
2.248400

>  <QED>  (48) 
0.698403

>  <SAS>  (48) 
1

$$$$
design_5
     RDKit          3D

 58 61  0  0  0  0  0  0  0  0999 V2000
  -14.4367  -10.3073   -3.8299 C   0  0  0  0  0  0  0  0  0  0  0  0
  -13.4267   -9.2153   -3.4792 C   0  0  0  0  0  0  0  0  0  0  0  0
  -12.9397   -8.5316   -4.6306 N   0  0  0  0  0  0  0  0  0  0  0  0
  -11.7244   -8.7691   -5.1757 N   0  0  0  0  0  0  0  0  0  0  0  0
  -11.5322   -7.9795   -6.2088 N   0  0  0  0  0  0  0  0  0  0  0  0
  -12.6053   -7.2377   -6.3369 N   0  0  0  0  0  0  0  0  0  0  0  0
  -13.5062   -7.5808   -5.3400 C   0  0  0  0  0  0  0  0  0  0  0  0
  -14.7808   -6.8978   -5.2230 C   0  0  0  0  0  0  0  0  0  0  0  0
  -15.4762   -6.3429   -6.2601 C   0  0  0  0  0  0  0  0  0  0  0  0
  -16.7332   -5.7288   -6.0896 C   0  0  0  0  0  0  0  0  0  0  0  0
  -17.2583   -5.6977   -4.8256 C   0  0  0  0  0  0  0  0  0  0  0  0
  -16.6113   -6.2367   -3.7332 C   0  0  0  0  0  0  0  0  0  0  0  0
  -17.1840   -6.1895   -2.3992 C   0  0  0  0  0  0  0  0  0  0  0  0
  -16.5988   -6.7987   -1.4815 O   0  0  0  0  0  0  0  0  0  0  0  0
  -18.3569   -5.4810   -2.1510 N   0  0  0  0  0  0  0  0  0  0  0  0
  -18.9970   -5.3850   -0.8550 C   0  0  0  0  0  0  0  0  0  0  0  0
  -18.1516   -4.5489    0.0246 C   0  0  0  0  0  0  0  0  0  0  0  0
  -17.4216   -5.1476    1.0347 C   0  0  0  0  0  0  0  0  0  0  0  0
  -16.6487   -4.3531    1.8414 C   0  0  0  0  0  0  0  0  0  0  0  0
  -16.5685   -2.9765    1.6869 C   0  0  0  0  0  0  0  0  0  0  0  0
  -17.2827   -2.3623    0.6928 C   0  0  0  0  0  0  0  0  0  0  0  0
  -17.3041   -1.0011    0.3884 N   0  0  0  0  0  0  0  0  0  0  0  0
  -17.7299   -0.0113    1.2774 C   0  0  0  0  0  0  0  0  0  0  0  0
  -17.7156    1.4093    0.8427 C   0  0  0  0  0  0  0  0  0  0  0  0
  -18.1232   -0.2539    2.4215 O   0  0  0  0  0  0  0  0  0  0  0  0
  -18.0707   -3.1937   -0.1256 C   0  0  0  0  0  0  0  0  0  0  0  0
  -15.3889   -6.8220   -3.9647 C   0  0  0  0  0  0  0  0  0  0  0  0
  -15.3333   -9.8510   -4.2494 H   0  0  0  0  0  0  0  0  0  0  0  0
  -13.9990  -10.9864   -4.5616 H   0  0  0  0  0  0  0  0  0  0  0  0
  -14.6995  -10.8626   -2.9296 H   0  0  0  0  0  0  0  0  0  0  0  0
  -12.5760   -9.6948   -2.9949 H   0  0  0  0  0  0  0  0  0  0  0  0
  -13.9073   -8.4925   -2.8199 H   0  0  0  0  0  0  0  0  0  0  0  0
  -15.0414   -6.3765   -7.2591 H   0  0  0  0  0  0  0  0  0  0  0  0
  -17.2682   -5.2941   -6.9339 H   0  0  0  0  0  0  0  0  0  0  0  0
  -18.2298   -5.2266   -4.6761 H   0  0  0  0  0  0  0  0  0  0  0  0
  -18.7906   -5.0017   -2.9270 H   0  0  0  0  0  0  0  0  0  0  0  0
  -19.1169   -6.3786   -0.4232 H   0  0  0  0  0  0  0  0  0  0  0  0
  -19.9809   -4.9285   -0.9629 H   0  0  0  0  0  0  0  0  0  0  0  0
  -17.4597   -6.2264    1.1861 H   0  0  0  0  0  0  0  0  0  0  0  0
  -16.0724   -4.8230    2.6384 H   0  0  0  0  0  0  0  0  0  0  0  0
  -15.9398   -2.3865    2.3538 H   0  0  0  0  0  0  0  0  0  0  0  0
  -16.9934   -0.7143   -0.5288 H   0  0  0  0  0  0  0  0  0  0  0  0
  -17.7477    1.4571   -0.2458 H   0  0  0  0  0  0  0  0  0  0  0  0
  -18.5828    1.9249    1.2554 H   0  0  0  0  0  0  0  0  0  0  0  0
  -18.6491   -2.7296   -0.9245 H   0  0  0  0  0  0  0  0  0  0  0  0
  -14.8603   -7.2541   -3.1150 H   0  0  0  0  0  0  0  0  0  0  0  0
  -17.1061    5.8619    1.8134 N   0  0  0  0  0  0  0  0  0  0  0  0
  -18.1779    5.1720    1.3711 C   0  0  0  0  0  0  0  0  0  0  0  0
  -18.0214    3.8377    1.1809 N   0  0  0  0  0  0  0  0  0  0  0  0
  -16.8650    3.1860    1.4117 C   0  0  0  0  0  0  0  0  0  0  0  0
  -15.6746    3.9085    1.8957 C   0  0  0  0  0  0  0  0  0  0  0  0
  -15.8008    5.2298    2.0914 C   0  0  0  0  0  0  0  0  0  0  0  0
  -19.2344    5.7431    1.1561 O   0  0  0  0  0  0  0  0  0  0  0  0
  -16.8423    1.8689    1.1853 N   0  0  0  0  0  0  0  0  0  0  0  0
  -17.2832    6.8356    1.9320 H   0  0  0  0  0  0  0  0  0  0  0  0
  -16.0204    1.3215    1.3336 H   0  0  0  0  0  0  0  0  0  0  0  0
  -14.7541    3.3876    2.0779 H   0  0  0  0  0  0  0  0  0  0  0  0
  -14.9649    5.8088    2.4440 H   0  0  0  0  0  0  0  0  0  0  0  0
  1  2  1  0
  2  3  1  0
  3  4  1  0
  4  5  2  0
  5  6  1  0
  6  7  2  0
  7  8  1  0
  8  9  2  0
  9 10  1  0
 10 11  2  0
 11 12  1  0
 12 13  1  0
 13 14  2  0
 13 15  1  0
 15 16  1  0
 16 17  1  0
 17 18  2  0
 18 19  1  0
 19 20  2  0
 20 21  1  0
 21 22  1  0
 22 23  1  0
 23 24  1  0
 23 25  2  0
 21 26  2  0
 12 27  2  0
  3  7  1  0
  8 27  1  0
 17 26  1  0
  1 28  1  0
  1 29  1  0
  1 30  1  0
  2 31  1  0
  2 32  1  0
  9 33  1  0
 10 34  1  0
 11 35  1  0
 15 36  1  0
 16 37  1  0
 16 38  1  0
 18 39  1  0
 19 40  1  0
 20 41  1  0
 22 42  1  0
 24 43  1  0
 24 44  1  0
 26 45  1  0
 27 46  1  0
 47 48  1  0
 47 55  1  0
 48 53  2  0
 48 49  1  0
 49 50  2  0
 50 51  1  0
 50 54  1  0
 51 52  2  0
 51 57  1  0
 47 52  1  0
 52 58  1  0
 54 56  1  0
 24 54  1  0
M  END
>  <CHROM.1>  (49) 
-102.38250819,-152.21691716,173.82874654,70.04577620,-106.58662457,-60.89933643
-16.01507382,-5.30683905,-2.26668205,0.46565807,-1.08168991,2.85957035

>  <Name>  (49) 
design_5

>  <RI>  (49) 
14243500.000000

>  <Rbt.Current_Directory>  (49) 
/pylon5/mc5pksp/smaltr/gateway_workdirs/PROCESS_93251df5-8da2-4fa9-b874-71853b29d1ad

>  <Rbt.Executable>  (49) 
rbdock ($Id: //depot/dev/client3/rdock/2013.1/src/exe/rbdock.cxx#4 $)

>  <Rbt.Library>  (49) 
libRbt.so (2013.1, Build901 2013/11/27)

>  <Rbt.Parameter_File>  (49) 
/home/smaltr/software/rDock_2013.1_src//data/scripts/dock.prm

>  <Rbt.Receptor>  (49) 
/pylon5/mc5pksp/smaltr/gateway_workdirs/PROCESS_93251df5-8da2-4fa9-b874-71853b29d1ad/output/SnD-Target-Sep02/cavity/pocket_docking.prm

>  <SCORE>  (49) 
-15.674100

>  <SCORE.INTER>  (49) 
-20.025600

>  <SCORE.INTER.CONST>  (49) 
1

>  <SCORE.INTER.POLAR>  (49) 
-1.687890

>  <SCORE.INTER.REPUL>  (49) 
0

>  <SCORE.INTER.ROT>  (49) 
6

>  <SCORE.INTER.VDW>  (49) 
-25.686800

>  <SCORE.INTER.norm>  (49) 
-0.741690

>  <SCORE.INTRA>  (49) 
4.351540

>  <SCORE.INTRA.DIHEDRAL>  (49) 
10.302700

>  <SCORE.INTRA.DIHEDRAL.0>  (49) 
6.485490

>  <SCORE.INTRA.POLAR>  (49) 
0

>  <SCORE.INTRA.POLAR.0>  (49) 
0

>  <SCORE.INTRA.REPUL>  (49) 
0

>  <SCORE.INTRA.REPUL.0>  (49) 
0

>  <SCORE.INTRA.VDW>  (49) 
-0.799816

>  <SCORE.INTRA.VDW.0>  (49) 
-1.971680

>  <SCORE.INTRA.norm>  (49) 
0.161168

>  <SCORE.RESTR>  (49) 
0

>  <SCORE.RESTR.CAVITY>  (49) 
0

>  <SCORE.RESTR.norm>  (49) 
0

>  <SCORE.SYSTEM>  (49) 
0

>  <SCORE.SYSTEM.CONST>  (49) 
0

>  <SCORE.SYSTEM.DIHEDRAL>  (49) 
0

>  <SCORE.SYSTEM.norm>  (49) 
0

>  <SCORE.heavy>  (49) 
27

>  <SCORE.norm>  (49) 
-0.580522

>  <SMILES>  (49) 
CCn1nnnc1-c1cccc(C(=O)NCc2cccc(NC(C)=O)c2)c1

>  <Cycle>  (49) 
228

>  <MolWeight>  (49) 
364.409000

>  <LogP>  (49) 
2.248400

>  <QED>  (49) 
0.698403

>  <SAS>  (49) 
1.1994945805123889

$$$$
design_5
     RDKit          3D

 58 61  0  0  0  0  0  0  0  0999 V2000
  -14.4367  -10.3073   -3.8299 C   0  0  0  0  0  0  0  0  0  0  0  0
  -13.4267   -9.2153   -3.4792 C   0  0  0  0  0  0  0  0  0  0  0  0
  -12.9397   -8.5316   -4.6306 N   0  0  0  0  0  0  0  0  0  0  0  0
  -11.7244   -8.7691   -5.1757 N   0  0  0  0  0  0  0  0  0  0  0  0
  -11.5322   -7.9795   -6.2088 N   0  0  0  0  0  0  0  0  0  0  0  0
  -12.6053   -7.2377   -6.3369 N   0  0  0  0  0  0  0  0  0  0  0  0
  -13.5062   -7.5808   -5.3400 C   0  0  0  0  0  0  0  0  0  0  0  0
  -14.7808   -6.8978   -5.2230 C   0  0  0  0  0  0  0  0  0  0  0  0
  -15.4762   -6.3429   -6.2601 C   0  0  0  0  0  0  0  0  0  0  0  0
  -16.7332   -5.7288   -6.0896 C   0  0  0  0  0  0  0  0  0  0  0  0
  -17.2583   -5.6977   -4.8256 C   0  0  0  0  0  0  0  0  0  0  0  0
  -16.6113   -6.2367   -3.7332 C   0  0  0  0  0  0  0  0  0  0  0  0
  -17.1840   -6.1895   -2.3992 C   0  0  0  0  0  0  0  0  0  0  0  0
  -16.5988   -6.7987   -1.4815 O   0  0  0  0  0  0  0  0  0  0  0  0
  -18.3569   -5.4810   -2.1510 N   0  0  0  0  0  0  0  0  0  0  0  0
  -18.9970   -5.3850   -0.8550 C   0  0  0  0  0  0  0  0  0  0  0  0
  -18.1516   -4.5489    0.0246 C   0  0  0  0  0  0  0  0  0  0  0  0
  -17.4216   -5.1476    1.0347 C   0  0  0  0  0  0  0  0  0  0  0  0
  -16.6487   -4.3531    1.8414 C   0  0  0  0  0  0  0  0  0  0  0  0
  -16.5685   -2.9765    1.6869 C   0  0  0  0  0  0  0  0  0  0  0  0
  -17.2827   -2.3623    0.6928 C   0  0  0  0  0  0  0  0  0  0  0  0
  -17.3041   -1.0011    0.3884 N   0  0  0  0  0  0  0  0  0  0  0  0
  -17.7299   -0.0113    1.2774 C   0  0  0  0  0  0  0  0  0  0  0  0
  -17.7156    1.4093    0.8427 C   0  0  0  0  0  0  0  0  0  0  0  0
  -18.1232   -0.2539    2.4215 O   0  0  0  0  0  0  0  0  0  0  0  0
  -18.0707   -3.1937   -0.1256 C   0  0  0  0  0  0  0  0  0  0  0  0
  -15.3889   -6.8220   -3.9647 C   0  0  0  0  0  0  0  0  0  0  0  0
  -13.9990  -10.9864   -4.5616 H   0  0  0  0  0  0  0  0  0  0  0  0
  -14.6995  -10.8626   -2.9296 H   0  0  0  0  0  0  0  0  0  0  0  0
  -12.5760   -9.6948   -2.9949 H   0  0  0  0  0  0  0  0  0  0  0  0
  -13.9073   -8.4925   -2.8199 H   0  0  0  0  0  0  0  0  0  0  0  0
  -15.0414   -6.3765   -7.2591 H   0  0  0  0  0  0  0  0  0  0  0  0
  -17.2682   -5.2941   -6.9339 H   0  0  0  0  0  0  0  0  0  0  0  0
  -18.2298   -5.2266   -4.6761 H   0  0  0  0  0  0  0  0  0  0  0  0
  -18.7906   -5.0017   -2.9270 H   0  0  0  0  0  0  0  0  0  0  0  0
  -19.1169   -6.3786   -0.4232 H   0  0  0  0  0  0  0  0  0  0  0  0
  -19.9809   -4.9285   -0.9629 H   0  0  0  0  0  0  0  0  0  0  0  0
  -17.4597   -6.2264    1.1861 H   0  0  0  0  0  0  0  0  0  0  0  0
  -16.0724   -4.8230    2.6384 H   0  0  0  0  0  0  0  0  0  0  0  0
  -15.9398   -2.3865    2.3538 H   0  0  0  0  0  0  0  0  0  0  0  0
  -16.9934   -0.7143   -0.5288 H   0  0  0  0  0  0  0  0  0  0  0  0
  -16.8044    1.8889    1.2002 H   0  0  0  0  0  0  0  0  0  0  0  0
  -17.7477    1.4571   -0.2458 H   0  0  0  0  0  0  0  0  0  0  0  0
  -18.5828    1.9249    1.2554 H   0  0  0  0  0  0  0  0  0  0  0  0
  -18.6491   -2.7296   -0.9245 H   0  0  0  0  0  0  0  0  0  0  0  0
  -14.8603   -7.2541   -3.1150 H   0  0  0  0  0  0  0  0  0  0  0  0
  -17.7871  -12.3978   -6.1846 N   0  0  0  0  0  0  0  0  0  0  0  0
  -16.6490  -12.8616   -5.6276 C   0  0  0  0  0  0  0  0  0  0  0  0
  -15.8594  -11.9617   -4.9891 N   0  0  0  0  0  0  0  0  0  0  0  0
  -16.1583  -10.6519   -4.8886 C   0  0  0  0  0  0  0  0  0  0  0  0
  -17.3936  -10.1115   -5.4849 C   0  0  0  0  0  0  0  0  0  0  0  0
  -18.1929  -10.9792   -6.1237 C   0  0  0  0  0  0  0  0  0  0  0  0
  -16.3598  -14.0442   -5.7072 O   0  0  0  0  0  0  0  0  0  0  0  0
  -15.2960   -9.8700   -4.2320 N   0  0  0  0  0  0  0  0  0  0  0  0
  -18.3224  -13.1050   -6.6392 H   0  0  0  0  0  0  0  0  0  0  0  0
  -15.4518   -8.8901   -4.1188 H   0  0  0  0  0  0  0  0  0  0  0  0
  -17.6294   -9.0675   -5.4046 H   0  0  0  0  0  0  0  0  0  0  0  0
  -19.1080  -10.6413   -6.5784 H   0  0  0  0  0  0  0  0  0  0  0  0
  1  2  1  0
  2  3  1  0
  3  4  1  0
  4  5  2  0
  5  6  1  0
  6  7  2  0
  7  8  1  0
  8  9  2  0
  9 10  1  0
 10 11  2  0
 11 12  1  0
 12 13  1  0
 13 14  2  0
 13 15  1  0
 15 16  1  0
 16 17  1  0
 17 18  2  0
 18 19  1  0
 19 20  2  0
 20 21  1  0
 21 22  1  0
 22 23  1  0
 23 24  1  0
 23 25  2  0
 21 26  2  0
 12 27  2  0
  3  7  1  0
  8 27  1  0
 17 26  1  0
  1 28  1  0
  1 29  1  0
  2 30  1  0
  2 31  1  0
  9 32  1  0
 10 33  1  0
 11 34  1  0
 15 35  1  0
 16 36  1  0
 16 37  1  0
 18 38  1  0
 19 39  1  0
 20 40  1  0
 22 41  1  0
 24 42  1  0
 24 43  1  0
 24 44  1  0
 26 45  1  0
 27 46  1  0
 47 48  1  0
 47 55  1  0
 48 53  2  0
 48 49  1  0
 49 50  2  0
 50 51  1  0
 50 54  1  0
 51 52  2  0
 51 57  1  0
 47 52  1  0
 52 58  1  0
 54 56  1  0
  1 54  1  0
M  END
>  <CHROM.1>  (50) 
-102.38250819,-152.21691716,173.82874654,70.04577620,-106.58662457,-60.89933643
-16.01507382,-5.30683905,-2.26668205,0.46565807,-1.08168991,2.85957035

>  <Name>  (50) 
design_5

>  <RI>  (50) 
14243500.000000

>  <Rbt.Current_Directory>  (50) 
/pylon5/mc5pksp/smaltr/gateway_workdirs/PROCESS_93251df5-8da2-4fa9-b874-71853b29d1ad

>  <Rbt.Executable>  (50) 
rbdock ($Id: //depot/dev/client3/rdock/2013.1/src/exe/rbdock.cxx#4 $)

>  <Rbt.Library>  (50) 
libRbt.so (2013.1, Build901 2013/11/27)

>  <Rbt.Parameter_File>  (50) 
/home/smaltr/software/rDock_2013.1_src//data/scripts/dock.prm

>  <Rbt.Receptor>  (50) 
/pylon5/mc5pksp/smaltr/gateway_workdirs/PROCESS_93251df5-8da2-4fa9-b874-71853b29d1ad/output/SnD-Target-Sep02/cavity/pocket_docking.prm

>  <SCORE>  (50) 
-15.674100

>  <SCORE.INTER>  (50) 
-20.025600

>  <SCORE.INTER.CONST>  (50) 
1

>  <SCORE.INTER.POLAR>  (50) 
-1.687890

>  <SCORE.INTER.REPUL>  (50) 
0

>  <SCORE.INTER.ROT>  (50) 
6

>  <SCORE.INTER.VDW>  (50) 
-25.686800

>  <SCORE.INTER.norm>  (50) 
-0.741690

>  <SCORE.INTRA>  (50) 
4.351540

>  <SCORE.INTRA.DIHEDRAL>  (50) 
10.302700

>  <SCORE.INTRA.DIHEDRAL.0>  (50) 
6.485490

>  <SCORE.INTRA.POLAR>  (50) 
0

>  <SCORE.INTRA.POLAR.0>  (50) 
0

>  <SCORE.INTRA.REPUL>  (50) 
0

>  <SCORE.INTRA.REPUL.0>  (50) 
0

>  <SCORE.INTRA.VDW>  (50) 
-0.799816

>  <SCORE.INTRA.VDW.0>  (50) 
-1.971680

>  <SCORE.INTRA.norm>  (50) 
0.161168

>  <SCORE.RESTR>  (50) 
0

>  <SCORE.RESTR.CAVITY>  (50) 
0

>  <SCORE.RESTR.norm>  (50) 
0

>  <SCORE.SYSTEM>  (50) 
0

>  <SCORE.SYSTEM.CONST>  (50) 
0

>  <SCORE.SYSTEM.DIHEDRAL>  (50) 
0

>  <SCORE.SYSTEM.norm>  (50) 
0

>  <SCORE.heavy>  (50) 
27

>  <SCORE.norm>  (50) 
-0.580522

>  <SMILES>  (50) 
CCn1nnnc1-c1cccc(C(=O)NCc2cccc(NC(C)=O)c2)c1

>  <Cycle>  (50) 
228

>  <MolWeight>  (50) 
364.409000

>  <LogP>  (50) 
2.248400

>  <QED>  (50) 
0.698403

>  <SAS>  (50) 
1.1994945805123889

$$$$
design_5
     RDKit          3D

 59 62  0  0  0  0  0  0  0  0999 V2000
  -14.4367  -10.3073   -3.8299 C   0  0  0  0  0  0  0  0  0  0  0  0
  -13.4267   -9.2153   -3.4792 C   0  0  0  0  0  0  0  0  0  0  0  0
  -12.9397   -8.5316   -4.6306 N   0  0  0  0  0  0  0  0  0  0  0  0
  -11.7244   -8.7691   -5.1757 N   0  0  0  0  0  0  0  0  0  0  0  0
  -11.5322   -7.9795   -6.2088 N   0  0  0  0  0  0  0  0  0  0  0  0
  -12.6053   -7.2377   -6.3369 N   0  0  0  0  0  0  0  0  0  0  0  0
  -13.5062   -7.5808   -5.3400 C   0  0  0  0  0  0  0  0  0  0  0  0
  -14.7808   -6.8978   -5.2230 C   0  0  0  0  0  0  0  0  0  0  0  0
  -15.4762   -6.3429   -6.2601 C   0  0  0  0  0  0  0  0  0  0  0  0
  -16.7332   -5.7288   -6.0896 C   0  0  0  0  0  0  0  0  0  0  0  0
  -17.2583   -5.6977   -4.8256 C   0  0  0  0  0  0  0  0  0  0  0  0
  -16.6113   -6.2367   -3.7332 C   0  0  0  0  0  0  0  0  0  0  0  0
  -17.1840   -6.1895   -2.3992 C   0  0  0  0  0  0  0  0  0  0  0  0
  -16.5988   -6.7987   -1.4815 O   0  0  0  0  0  0  0  0  0  0  0  0
  -18.3569   -5.4810   -2.1510 N   0  0  0  0  0  0  0  0  0  0  0  0
  -18.9970   -5.3850   -0.8550 C   0  0  0  0  0  0  0  0  0  0  0  0
  -18.1516   -4.5489    0.0246 C   0  0  0  0  0  0  0  0  0  0  0  0
  -17.4216   -5.1476    1.0347 C   0  0  0  0  0  0  0  0  0  0  0  0
  -16.6487   -4.3531    1.8414 C   0  0  0  0  0  0  0  0  0  0  0  0
  -16.5685   -2.9765    1.6869 C   0  0  0  0  0  0  0  0  0  0  0  0
  -17.2827   -2.3623    0.6928 C   0  0  0  0  0  0  0  0  0  0  0  0
  -17.3041   -1.0011    0.3884 N   0  0  0  0  0  0  0  0  0  0  0  0
  -17.7299   -0.0113    1.2774 C   0  0  0  0  0  0  0  0  0  0  0  0
  -17.7156    1.4093    0.8427 C   0  0  0  0  0  0  0  0  0  0  0  0
  -18.1232   -0.2539    2.4215 O   0  0  0  0  0  0  0  0  0  0  0  0
  -18.0707   -3.1937   -0.1256 C   0  0  0  0  0  0  0  0  0  0  0  0
  -15.3889   -6.8220   -3.9647 C   0  0  0  0  0  0  0  0  0  0  0  0
  -15.3333   -9.8510   -4.2494 H   0  0  0  0  0  0  0  0  0  0  0  0
  -13.9990  -10.9864   -4.5616 H   0  0  0  0  0  0  0  0  0  0  0  0
  -14.6995  -10.8626   -2.9296 H   0  0  0  0  0  0  0  0  0  0  0  0
  -12.5760   -9.6948   -2.9949 H   0  0  0  0  0  0  0  0  0  0  0  0
  -13.9073   -8.4925   -2.8199 H   0  0  0  0  0  0  0  0  0  0  0  0
  -15.0414   -6.3765   -7.2591 H   0  0  0  0  0  0  0  0  0  0  0  0
  -17.2682   -5.2941   -6.9339 H   0  0  0  0  0  0  0  0  0  0  0  0
  -18.2298   -5.2266   -4.6761 H   0  0  0  0  0  0  0  0  0  0  0  0
  -18.7906   -5.0017   -2.9270 H   0  0  0  0  0  0  0  0  0  0  0  0
  -19.1169   -6.3786   -0.4232 H   0  0  0  0  0  0  0  0  0  0  0  0
  -19.9809   -4.9285   -0.9629 H   0  0  0  0  0  0  0  0  0  0  0  0
  -17.4597   -6.2264    1.1861 H   0  0  0  0  0  0  0  0  0  0  0  0
  -16.0724   -4.8230    2.6384 H   0  0  0  0  0  0  0  0  0  0  0  0
  -15.9398   -2.3865    2.3538 H   0  0  0  0  0  0  0  0  0  0  0  0
  -16.8044    1.8889    1.2002 H   0  0  0  0  0  0  0  0  0  0  0  0
  -17.7477    1.4571   -0.2458 H   0  0  0  0  0  0  0  0  0  0  0  0
  -18.5828    1.9249    1.2554 H   0  0  0  0  0  0  0  0  0  0  0  0
  -18.6491   -2.7296   -0.9245 H   0  0  0  0  0  0  0  0  0  0  0  0
  -14.8603   -7.2541   -3.1150 H   0  0  0  0  0  0  0  0  0  0  0  0
  -16.1650    0.0720   -3.0364 N   0  0  0  0  0  0  0  0  0  0  0  0
  -17.4203    0.0016   -2.6534 C   0  0  0  0  0  0  0  0  0  0  0  0
  -17.8904   -0.3642   -1.4751 N   0  0  0  0  0  0  0  0  0  0  0  0
  -16.9823   -0.7040   -0.5617 C   0  0  0  0  0  0  0  0  0  0  0  0
  -15.6307   -0.6714   -0.8454 C   0  0  0  0  0  0  0  0  0  0  0  0
  -15.2893   -0.2691   -2.1182 C   0  0  0  0  0  0  0  0  0  0  0  0
  -14.0119   -0.2024   -2.4933 N   0  0  0  0  0  0  0  0  0  0  0  0
  -18.3197    0.3380   -3.5547 N   0  0  0  0  0  0  0  0  0  0  0  0
  -14.8810   -0.9418   -0.1230 H   0  0  0  0  0  0  0  0  0  0  0  0
  -13.8546    0.0981   -3.4314 H   0  0  0  0  0  0  0  0  0  0  0  0
  -13.2632   -0.4359   -1.8824 H   0  0  0  0  0  0  0  0  0  0  0  0
  -19.2713    0.2889   -3.2779 H   0  0  0  0  0  0  0  0  0  0  0  0
  -17.9811    0.6150   -4.4458 H   0  0  0  0  0  0  0  0  0  0  0  0
  1  2  1  0
  2  3  1  0
  3  4  1  0
  4  5  2  0
  5  6  1  0
  6  7  2  0
  7  8  1  0
  8  9  2  0
  9 10  1  0
 10 11  2  0
 11 12  1  0
 12 13  1  0
 13 14  2  0
 13 15  1  0
 15 16  1  0
 16 17  1  0
 17 18  2  0
 18 19  1  0
 19 20  2  0
 20 21  1  0
 21 22  1  0
 22 23  1  0
 23 24  1  0
 23 25  2  0
 21 26  2  0
 12 27  2  0
  3  7  1  0
  8 27  1  0
 17 26  1  0
  1 28  1  0
  1 29  1  0
  1 30  1  0
  2 31  1  0
  2 32  1  0
  9 33  1  0
 10 34  1  0
 11 35  1  0
 15 36  1  0
 16 37  1  0
 16 38  1  0
 18 39  1  0
 19 40  1  0
 20 41  1  0
 24 42  1  0
 24 43  1  0
 24 44  1  0
 26 45  1  0
 27 46  1  0
 47 48  2  0
 47 52  1  0
 48 49  1  0
 48 54  1  0
 49 50  2  0
 50 51  1  0
 51 52  2  0
 51 55  1  0
 52 53  1  0
 53 56  1  0
 53 57  1  0
 54 58  1  0
 54 59  1  0
 22 50  1  0
M  END
>  <CHROM.1>  (51) 
-102.38250819,-152.21691716,173.82874654,70.04577620,-106.58662457,-60.89933643
-16.01507382,-5.30683905,-2.26668205,0.46565807,-1.08168991,2.85957035

>  <Name>  (51) 
design_5

>  <RI>  (51) 
14243500.000000

>  <Rbt.Current_Directory>  (51) 
/pylon5/mc5pksp/smaltr/gateway_workdirs/PROCESS_93251df5-8da2-4fa9-b874-71853b29d1ad

>  <Rbt.Executable>  (51) 
rbdock ($Id: //depot/dev/client3/rdock/2013.1/src/exe/rbdock.cxx#4 $)

>  <Rbt.Library>  (51) 
libRbt.so (2013.1, Build901 2013/11/27)

>  <Rbt.Parameter_File>  (51) 
/home/smaltr/software/rDock_2013.1_src//data/scripts/dock.prm

>  <Rbt.Receptor>  (51) 
/pylon5/mc5pksp/smaltr/gateway_workdirs/PROCESS_93251df5-8da2-4fa9-b874-71853b29d1ad/output/SnD-Target-Sep02/cavity/pocket_docking.prm

>  <SCORE>  (51) 
-15.674100

>  <SCORE.INTER>  (51) 
-20.025600

>  <SCORE.INTER.CONST>  (51) 
1

>  <SCORE.INTER.POLAR>  (51) 
-1.687890

>  <SCORE.INTER.REPUL>  (51) 
0

>  <SCORE.INTER.ROT>  (51) 
6

>  <SCORE.INTER.VDW>  (51) 
-25.686800

>  <SCORE.INTER.norm>  (51) 
-0.741690

>  <SCORE.INTRA>  (51) 
4.351540

>  <SCORE.INTRA.DIHEDRAL>  (51) 
10.302700

>  <SCORE.INTRA.DIHEDRAL.0>  (51) 
6.485490

>  <SCORE.INTRA.POLAR>  (51) 
0

>  <SCORE.INTRA.POLAR.0>  (51) 
0

>  <SCORE.INTRA.REPUL>  (51) 
0

>  <SCORE.INTRA.REPUL.0>  (51) 
0

>  <SCORE.INTRA.VDW>  (51) 
-0.799816

>  <SCORE.INTRA.VDW.0>  (51) 
-1.971680

>  <SCORE.INTRA.norm>  (51) 
0.161168

>  <SCORE.RESTR>  (51) 
0

>  <SCORE.RESTR.CAVITY>  (51) 
0

>  <SCORE.RESTR.norm>  (51) 
0

>  <SCORE.SYSTEM>  (51) 
0

>  <SCORE.SYSTEM.CONST>  (51) 
0

>  <SCORE.SYSTEM.DIHEDRAL>  (51) 
0

>  <SCORE.SYSTEM.norm>  (51) 
0

>  <SCORE.heavy>  (51) 
27

>  <SCORE.norm>  (51) 
-0.580522

>  <SMILES>  (51) 
CCn1nnnc1-c1cccc(C(=O)NCc2cccc(NC(C)=O)c2)c1

>  <Cycle>  (51) 
228

>  <MolWeight>  (51) 
364.409000

>  <LogP>  (51) 
2.248400

>  <QED>  (51) 
0.698403

>  <SAS>  (51) 
1.446821115518647

$$$$
design_5
     RDKit          3D

 52 54  0  0  0  0  0  0  0  0999 V2000
  -14.4367  -10.3073   -3.8299 C   0  0  0  0  0  0  0  0  0  0  0  0
  -13.4267   -9.2153   -3.4792 C   0  0  0  0  0  0  0  0  0  0  0  0
  -12.9397   -8.5316   -4.6306 N   0  0  0  0  0  0  0  0  0  0  0  0
  -11.7244   -8.7691   -5.1757 N   0  0  0  0  0  0  0  0  0  0  0  0
  -11.5322   -7.9795   -6.2088 N   0  0  0  0  0  0  0  0  0  0  0  0
  -12.6053   -7.2377   -6.3369 N   0  0  0  0  0  0  0  0  0  0  0  0
  -13.5062   -7.5808   -5.3400 C   0  0  0  0  0  0  0  0  0  0  0  0
  -14.7808   -6.8978   -5.2230 C   0  0  0  0  0  0  0  0  0  0  0  0
  -15.4762   -6.3429   -6.2601 C   0  0  0  0  0  0  0  0  0  0  0  0
  -16.7332   -5.7288   -6.0896 C   0  0  0  0  0  0  0  0  0  0  0  0
  -17.2583   -5.6977   -4.8256 C   0  0  0  0  0  0  0  0  0  0  0  0
  -16.6113   -6.2367   -3.7332 C   0  0  0  0  0  0  0  0  0  0  0  0
  -17.1840   -6.1895   -2.3992 C   0  0  0  0  0  0  0  0  0  0  0  0
  -16.5988   -6.7987   -1.4815 O   0  0  0  0  0  0  0  0  0  0  0  0
  -18.3569   -5.4810   -2.1510 N   0  0  0  0  0  0  0  0  0  0  0  0
  -18.9970   -5.3850   -0.8550 C   0  0  0  0  0  0  0  0  0  0  0  0
  -18.1516   -4.5489    0.0246 C   0  0  0  0  0  0  0  0  0  0  0  0
  -17.4216   -5.1476    1.0347 C   0  0  0  0  0  0  0  0  0  0  0  0
  -16.6487   -4.3531    1.8414 C   0  0  0  0  0  0  0  0  0  0  0  0
  -16.5685   -2.9765    1.6869 C   0  0  0  0  0  0  0  0  0  0  0  0
  -17.2827   -2.3623    0.6928 C   0  0  0  0  0  0  0  0  0  0  0  0
  -17.3041   -1.0011    0.3884 N   0  0  0  0  0  0  0  0  0  0  0  0
  -17.7299   -0.0113    1.2774 C   0  0  0  0  0  0  0  0  0  0  0  0
  -17.7156    1.4093    0.8427 C   0  0  0  0  0  0  0  0  0  0  0  0
  -18.1232   -0.2539    2.4215 O   0  0  0  0  0  0  0  0  0  0  0  0
  -18.0707   -3.1937   -0.1256 C   0  0  0  0  0  0  0  0  0  0  0  0
  -15.3889   -6.8220   -3.9647 C   0  0  0  0  0  0  0  0  0  0  0  0
  -15.3333   -9.8510   -4.2494 H   0  0  0  0  0  0  0  0  0  0  0  0
  -13.9990  -10.9864   -4.5616 H   0  0  0  0  0  0  0  0  0  0  0  0
  -14.6995  -10.8626   -2.9296 H   0  0  0  0  0  0  0  0  0  0  0  0
  -12.5760   -9.6948   -2.9949 H   0  0  0  0  0  0  0  0  0  0  0  0
  -13.9073   -8.4925   -2.8199 H   0  0  0  0  0  0  0  0  0  0  0  0
  -15.0414   -6.3765   -7.2591 H   0  0  0  0  0  0  0  0  0  0  0  0
  -17.2682   -5.2941   -6.9339 H   0  0  0  0  0  0  0  0  0  0  0  0
  -18.2298   -5.2266   -4.6761 H   0  0  0  0  0  0  0  0  0  0  0  0
  -18.7906   -5.0017   -2.9270 H   0  0  0  0  0  0  0  0  0  0  0  0
  -19.1169   -6.3786   -0.4232 H   0  0  0  0  0  0  0  0  0  0  0  0
  -19.9809   -4.9285   -0.9629 H   0  0  0  0  0  0  0  0  0  0  0  0
  -17.4597   -6.2264    1.1861 H   0  0  0  0  0  0  0  0  0  0  0  0
  -16.0724   -4.8230    2.6384 H   0  0  0  0  0  0  0  0  0  0  0  0
  -15.9398   -2.3865    2.3538 H   0  0  0  0  0  0  0  0  0  0  0  0
  -16.8044    1.8889    1.2002 H   0  0  0  0  0  0  0  0  0  0  0  0
  -17.7477    1.4571   -0.2458 H   0  0  0  0  0  0  0  0  0  0  0  0
  -18.5828    1.9249    1.2554 H   0  0  0  0  0  0  0  0  0  0  0  0
  -18.6491   -2.7296   -0.9245 H   0  0  0  0  0  0  0  0  0  0  0  0
  -14.8603   -7.2541   -3.1150 H   0  0  0  0  0  0  0  0  0  0  0  0
  -17.8900    0.3148   -1.0809 N   0  0  0  0  0  0  0  0  0  0  0  0
  -16.9811   -0.7029   -0.5652 C   0  0  0  0  0  0  0  0  0  0  0  0
  -18.8341   -0.0458   -1.1380 H   0  0  0  0  0  0  0  0  0  0  0  0
  -17.9167    1.1160   -0.4631 H   0  0  0  0  0  0  0  0  0  0  0  0
  -15.9764   -0.2846   -0.5018 H   0  0  0  0  0  0  0  0  0  0  0  0
  -16.9834   -1.5579   -1.2416 H   0  0  0  0  0  0  0  0  0  0  0  0
  1  2  1  0
  2  3  1  0
  3  4  1  0
  4  5  2  0
  5  6  1  0
  6  7  2  0
  7  8  1  0
  8  9  2  0
  9 10  1  0
 10 11  2  0
 11 12  1  0
 12 13  1  0
 13 14  2  0
 13 15  1  0
 15 16  1  0
 16 17  1  0
 17 18  2  0
 18 19  1  0
 19 20  2  0
 20 21  1  0
 21 22  1  0
 22 23  1  0
 23 24  1  0
 23 25  2  0
 21 26  2  0
 12 27  2  0
  3  7  1  0
  8 27  1  0
 17 26  1  0
  1 28  1  0
  1 29  1  0
  1 30  1  0
  2 31  1  0
  2 32  1  0
  9 33  1  0
 10 34  1  0
 11 35  1  0
 15 36  1  0
 16 37  1  0
 16 38  1  0
 18 39  1  0
 19 40  1  0
 20 41  1  0
 24 42  1  0
 24 43  1  0
 24 44  1  0
 26 45  1  0
 27 46  1  0
 47 48  1  0
 47 49  1  0
 47 50  1  0
 48 51  1  0
 48 52  1  0
 22 48  1  0
M  END
>  <CHROM.1>  (52) 
-102.38250819,-152.21691716,173.82874654,70.04577620,-106.58662457,-60.89933643
-16.01507382,-5.30683905,-2.26668205,0.46565807,-1.08168991,2.85957035

>  <Name>  (52) 
design_5

>  <RI>  (52) 
14243500.000000

>  <Rbt.Current_Directory>  (52) 
/pylon5/mc5pksp/smaltr/gateway_workdirs/PROCESS_93251df5-8da2-4fa9-b874-71853b29d1ad

>  <Rbt.Executable>  (52) 
rbdock ($Id: //depot/dev/client3/rdock/2013.1/src/exe/rbdock.cxx#4 $)

>  <Rbt.Library>  (52) 
libRbt.so (2013.1, Build901 2013/11/27)

>  <Rbt.Parameter_File>  (52) 
/home/smaltr/software/rDock_2013.1_src//data/scripts/dock.prm

>  <Rbt.Receptor>  (52) 
/pylon5/mc5pksp/smaltr/gateway_workdirs/PROCESS_93251df5-8da2-4fa9-b874-71853b29d1ad/output/SnD-Target-Sep02/cavity/pocket_docking.prm

>  <SCORE>  (52) 
-15.674100

>  <SCORE.INTER>  (52) 
-20.025600

>  <SCORE.INTER.CONST>  (52) 
1

>  <SCORE.INTER.POLAR>  (52) 
-1.687890

>  <SCORE.INTER.REPUL>  (52) 
0

>  <SCORE.INTER.ROT>  (52) 
6

>  <SCORE.INTER.VDW>  (52) 
-25.686800

>  <SCORE.INTER.norm>  (52) 
-0.741690

>  <SCORE.INTRA>  (52) 
4.351540

>  <SCORE.INTRA.DIHEDRAL>  (52) 
10.302700

>  <SCORE.INTRA.DIHEDRAL.0>  (52) 
6.485490

>  <SCORE.INTRA.POLAR>  (52) 
0

>  <SCORE.INTRA.POLAR.0>  (52) 
0

>  <SCORE.INTRA.REPUL>  (52) 
0

>  <SCORE.INTRA.REPUL.0>  (52) 
0

>  <SCORE.INTRA.VDW>  (52) 
-0.799816

>  <SCORE.INTRA.VDW.0>  (52) 
-1.971680

>  <SCORE.INTRA.norm>  (52) 
0.161168

>  <SCORE.RESTR>  (52) 
0

>  <SCORE.RESTR.CAVITY>  (52) 
0

>  <SCORE.RESTR.norm>  (52) 
0

>  <SCORE.SYSTEM>  (52) 
0

>  <SCORE.SYSTEM.CONST>  (52) 
0

>  <SCORE.SYSTEM.DIHEDRAL>  (52) 
0

>  <SCORE.SYSTEM.norm>  (52) 
0

>  <SCORE.heavy>  (52) 
27

>  <SCORE.norm>  (52) 
-0.580522

>  <SMILES>  (52) 
CCn1nnnc1-c1cccc(C(=O)NCc2cccc(NC(C)=O)c2)c1

>  <Cycle>  (52) 
228

>  <MolWeight>  (52) 
364.409000

>  <LogP>  (52) 
2.248400

>  <QED>  (52) 
0.698403

>  <SAS>  (52) 
1

$$$$
design_0
     RDKit          3D

 57 61  0  0  0  0  0  0  0  0999 V2000
  -22.1516   -8.0657    0.8587 C   0  0  0  0  0  0  0  0  0  0  0  0
  -22.1155   -6.8694   -0.0529 C   0  0  0  0  0  0  0  0  0  0  0  0
  -22.1406   -5.6324    0.6576 N   0  0  0  0  0  0  0  0  0  0  0  0
  -23.3222   -5.1180    1.0854 N   0  0  0  0  0  0  0  0  0  0  0  0
  -23.1120   -3.9821    1.6836 N   0  0  0  0  0  0  0  0  0  0  0  0
  -21.8288   -3.7428    1.6576 N   0  0  0  0  0  0  0  0  0  0  0  0
  -21.2073   -4.7858    1.0093 C   0  0  0  0  0  0  0  0  0  0  0  0
  -19.7788   -4.8062    0.7933 C   0  0  0  0  0  0  0  0  0  0  0  0
  -18.9443   -4.0163    1.5979 C   0  0  0  0  0  0  0  0  0  0  0  0
  -17.5902   -4.0232    1.4494 C   0  0  0  0  0  0  0  0  0  0  0  0
  -16.9722   -4.8058    0.5020 C   0  0  0  0  0  0  0  0  0  0  0  0
  -17.7390   -5.5990   -0.3126 C   0  0  0  0  0  0  0  0  0  0  0  0
  -17.2078   -6.4263   -1.3205 N   0  0  0  0  0  0  0  0  0  0  0  0
  -15.8531   -6.5821   -1.6539 C   0  0  0  0  0  0  0  0  0  0  0  0
  -14.9365   -5.9819   -1.0758 O   0  0  0  0  0  0  0  0  0  0  0  0
  -15.4702   -7.5106   -2.7555 C   0  0  0  0  0  0  0  0  0  0  0  0
  -15.7651   -6.9657   -4.0851 C   0  0  0  0  0  0  0  0  0  0  0  0
  -16.7760   -6.0324   -4.2619 C   0  0  0  0  0  0  0  0  0  0  0  0
  -17.0602   -5.5123   -5.5074 C   0  0  0  0  0  0  0  0  0  0  0  0
  -16.3005   -5.9557   -6.5706 C   0  0  0  0  0  0  0  0  0  0  0  0
  -15.2908   -6.8846   -6.4100 C   0  0  0  0  0  0  0  0  0  0  0  0
  -15.0081   -7.4045   -5.1601 C   0  0  0  0  0  0  0  0  0  0  0  0
  -13.9417   -8.3976   -4.9320 C   0  0  0  0  0  0  0  0  0  0  0  0
  -19.1343   -5.5682   -0.1322 C   0  0  0  0  0  0  0  0  0  0  0  0
  -23.1223   -8.1168    1.3519 H   0  0  0  0  0  0  0  0  0  0  0  0
  -21.9930   -8.9727    0.2753 H   0  0  0  0  0  0  0  0  0  0  0  0
  -21.3673   -7.9745    1.6101 H   0  0  0  0  0  0  0  0  0  0  0  0
  -23.0073   -6.9066   -0.6785 H   0  0  0  0  0  0  0  0  0  0  0  0
  -21.2034   -6.9116   -0.6481 H   0  0  0  0  0  0  0  0  0  0  0  0
  -19.3911   -3.3803    2.3620 H   0  0  0  0  0  0  0  0  0  0  0  0
  -15.8870   -4.7957    0.4000 H   0  0  0  0  0  0  0  0  0  0  0  0
  -17.8709   -6.9640   -1.8602 H   0  0  0  0  0  0  0  0  0  0  0  0
  -16.0571   -8.4213   -2.6363 H   0  0  0  0  0  0  0  0  0  0  0  0
  -14.4005   -7.7091   -2.6889 H   0  0  0  0  0  0  0  0  0  0  0  0
  -17.3569   -5.7038   -3.4001 H   0  0  0  0  0  0  0  0  0  0  0  0
  -17.8546   -4.7790   -5.6465 H   0  0  0  0  0  0  0  0  0  0  0  0
  -16.5031   -5.5614   -7.5664 H   0  0  0  0  0  0  0  0  0  0  0  0
  -14.7126   -7.2102   -7.2748 H   0  0  0  0  0  0  0  0  0  0  0  0
  -13.0718   -7.9030   -4.4999 H   0  0  0  0  0  0  0  0  0  0  0  0
  -14.3001   -9.1655   -4.2465 H   0  0  0  0  0  0  0  0  0  0  0  0
  -13.6637   -8.8574   -5.8804 H   0  0  0  0  0  0  0  0  0  0  0  0
  -19.7424   -6.1997   -0.7799 H   0  0  0  0  0  0  0  0  0  0  0  0
  -15.6764   -5.3298    2.7851 N   0  0  0  0  0  0  0  0  0  0  0  0
  -14.6731   -5.8125    3.5283 C   0  0  0  0  0  0  0  0  0  0  0  0
  -13.8910   -5.0823    4.3430 N   0  0  0  0  0  0  0  0  0  0  0  0
  -14.1170   -3.7587    4.4336 C   0  0  0  0  0  0  0  0  0  0  0  0
  -15.3964   -1.7959    3.7733 C   0  0  0  0  0  0  0  0  0  0  0  0
  -16.4293   -1.2230    3.0247 C   0  0  0  0  0  0  0  0  0  0  0  0
  -17.2212   -2.0201    2.1866 C   0  0  0  0  0  0  0  0  0  0  0  0
  -16.9844   -3.3961    2.0942 C   0  0  0  0  0  0  0  0  0  0  0  0
  -15.9512   -3.9911    2.8381 C   0  0  0  0  0  0  0  0  0  0  0  0
  -15.1571   -3.1821    3.6804 C   0  0  0  0  0  0  0  0  0  0  0  0
  -14.4758   -6.8743    3.4688 H   0  0  0  0  0  0  0  0  0  0  0  0
  -13.5007   -3.1518    5.0820 H   0  0  0  0  0  0  0  0  0  0  0  0
  -14.7922   -1.1701    4.4154 H   0  0  0  0  0  0  0  0  0  0  0  0
  -16.6183   -0.1605    3.0911 H   0  0  0  0  0  0  0  0  0  0  0  0
  -18.0186   -1.5710    1.6104 H   0  0  0  0  0  0  0  0  0  0  0  0
  1  2  1  0
  2  3  1  0
  3  4  1  0
  4  5  2  0
  5  6  1  0
  6  7  2  0
  7  8  1  0
  8  9  2  0
  9 10  1  0
 10 11  2  0
 11 12  1  0
 12 13  1  0
 13 14  1  0
 14 15  2  0
 14 16  1  0
 16 17  1  0
 17 18  2  0
 18 19  1  0
 19 20  2  0
 20 21  1  0
 21 22  2  0
 22 23  1  0
 12 24  2  0
  3  7  1  0
  8 24  1  0
 17 22  1  0
  1 25  1  0
  1 26  1  0
  1 27  1  0
  2 28  1  0
  2 29  1  0
  9 30  1  0
 11 31  1  0
 13 32  1  0
 16 33  1  0
 16 34  1  0
 18 35  1  0
 19 36  1  0
 20 37  1  0
 21 38  1  0
 23 39  1  0
 23 40  1  0
 23 41  1  0
 24 42  1  0
 43 44  2  0
 44 53  1  0
 44 45  1  0
 45 46  2  0
 46 52  1  0
 46 54  1  0
 47 48  1  0
 47 52  2  0
 47 55  1  0
 48 49  2  0
 48 56  1  0
 49 57  1  0
 49 50  1  0
 43 51  1  0
 50 51  2  0
 51 52  1  0
 10 50  1  0
M  END
>  <CHROM.1>  (53) 
-82.47700389,-160.56280652,0.18469452,74.79529170,-26.30661146,-18.34912369
-5.88734929,-1.34336050,2.37430369,0.07690764,1.19127423

>  <Name>  (53) 
design_0

>  <RI>  (53) 
12445400.000000

>  <Rbt.Current_Directory>  (53) 
/pylon5/mc5pksp/smaltr/gateway_workdirs/PROCESS_93251df5-8da2-4fa9-b874-71853b29d1ad

>  <Rbt.Executable>  (53) 
rbdock ($Id: //depot/dev/client3/rdock/2013.1/src/exe/rbdock.cxx#4 $)

>  <Rbt.Library>  (53) 
libRbt.so (2013.1, Build901 2013/11/27)

>  <Rbt.Parameter_File>  (53) 
/home/smaltr/software/rDock_2013.1_src//data/scripts/dock.prm

>  <Rbt.Receptor>  (53) 
/pylon5/mc5pksp/smaltr/gateway_workdirs/PROCESS_93251df5-8da2-4fa9-b874-71853b29d1ad/output/SnD-Target-Sep02/cavity/pocket_docking.prm

>  <SCORE>  (53) 
-19.693700

>  <SCORE.INTER>  (53) 
-19.878300

>  <SCORE.INTER.CONST>  (53) 
1

>  <SCORE.INTER.POLAR>  (53) 
-1.998350

>  <SCORE.INTER.REPUL>  (53) 
0

>  <SCORE.INTER.ROT>  (53) 
5

>  <SCORE.INTER.VDW>  (53) 
-23.483900

>  <SCORE.INTER.norm>  (53) 
-0.828262

>  <SCORE.INTRA>  (53) 
0.184616

>  <SCORE.INTRA.DIHEDRAL>  (53) 
0.686223

>  <SCORE.INTRA.DIHEDRAL.0>  (53) 
5.116130

>  <SCORE.INTRA.POLAR>  (53) 
0

>  <SCORE.INTRA.POLAR.0>  (53) 
0

>  <SCORE.INTRA.REPUL>  (53) 
0

>  <SCORE.INTRA.REPUL.0>  (53) 
0

>  <SCORE.INTRA.VDW>  (53) 
-0.158495

>  <SCORE.INTRA.VDW.0>  (53) 
-1.233420

>  <SCORE.INTRA.norm>  (53) 
0.007692

>  <SCORE.RESTR>  (53) 
0

>  <SCORE.RESTR.CAVITY>  (53) 
0

>  <SCORE.RESTR.norm>  (53) 
0

>  <SCORE.SYSTEM>  (53) 
0

>  <SCORE.SYSTEM.CONST>  (53) 
0

>  <SCORE.SYSTEM.DIHEDRAL>  (53) 
0

>  <SCORE.SYSTEM.norm>  (53) 
0

>  <SCORE.heavy>  (53) 
24

>  <SCORE.norm>  (53) 
-0.820569

>  <SMILES>  (53) 
CCn1nnnc1-c1cccc(NC(=O)Cc2ccccc2C)c1

>  <Cycle>  (53) 
228

>  <MolWeight>  (53) 
321.384000

>  <LogP>  (53) 
2.849620

>  <QED>  (53) 
0.784063

>  <SAS>  (53) 
2.0129644686844372

$$$$
design_0
     RDKit          3D

 57 61  0  0  0  0  0  0  0  0999 V2000
  -22.1516   -8.0657    0.8587 C   0  0  0  0  0  0  0  0  0  0  0  0
  -22.1155   -6.8694   -0.0529 C   0  0  0  0  0  0  0  0  0  0  0  0
  -22.1406   -5.6324    0.6576 N   0  0  0  0  0  0  0  0  0  0  0  0
  -23.3222   -5.1180    1.0854 N   0  0  0  0  0  0  0  0  0  0  0  0
  -23.1120   -3.9821    1.6836 N   0  0  0  0  0  0  0  0  0  0  0  0
  -21.8288   -3.7428    1.6576 N   0  0  0  0  0  0  0  0  0  0  0  0
  -21.2073   -4.7858    1.0093 C   0  0  0  0  0  0  0  0  0  0  0  0
  -19.7788   -4.8062    0.7933 C   0  0  0  0  0  0  0  0  0  0  0  0
  -18.9443   -4.0163    1.5979 C   0  0  0  0  0  0  0  0  0  0  0  0
  -17.5902   -4.0232    1.4494 C   0  0  0  0  0  0  0  0  0  0  0  0
  -16.9722   -4.8058    0.5020 C   0  0  0  0  0  0  0  0  0  0  0  0
  -17.7390   -5.5990   -0.3126 C   0  0  0  0  0  0  0  0  0  0  0  0
  -17.2078   -6.4263   -1.3205 N   0  0  0  0  0  0  0  0  0  0  0  0
  -15.8531   -6.5821   -1.6539 C   0  0  0  0  0  0  0  0  0  0  0  0
  -14.9365   -5.9819   -1.0758 O   0  0  0  0  0  0  0  0  0  0  0  0
  -15.4702   -7.5106   -2.7555 C   0  0  0  0  0  0  0  0  0  0  0  0
  -15.7651   -6.9657   -4.0851 C   0  0  0  0  0  0  0  0  0  0  0  0
  -16.7760   -6.0324   -4.2619 C   0  0  0  0  0  0  0  0  0  0  0  0
  -17.0602   -5.5123   -5.5074 C   0  0  0  0  0  0  0  0  0  0  0  0
  -16.3005   -5.9557   -6.5706 C   0  0  0  0  0  0  0  0  0  0  0  0
  -15.2908   -6.8846   -6.4100 C   0  0  0  0  0  0  0  0  0  0  0  0
  -15.0081   -7.4045   -5.1601 C   0  0  0  0  0  0  0  0  0  0  0  0
  -13.9417   -8.3976   -4.9320 C   0  0  0  0  0  0  0  0  0  0  0  0
  -19.1343   -5.5682   -0.1322 C   0  0  0  0  0  0  0  0  0  0  0  0
  -23.1223   -8.1168    1.3519 H   0  0  0  0  0  0  0  0  0  0  0  0
  -21.9930   -8.9727    0.2753 H   0  0  0  0  0  0  0  0  0  0  0  0
  -21.3673   -7.9745    1.6101 H   0  0  0  0  0  0  0  0  0  0  0  0
  -23.0073   -6.9066   -0.6785 H   0  0  0  0  0  0  0  0  0  0  0  0
  -21.2034   -6.9116   -0.6481 H   0  0  0  0  0  0  0  0  0  0  0  0
  -19.3911   -3.3803    2.3620 H   0  0  0  0  0  0  0  0  0  0  0  0
  -15.8870   -4.7957    0.4000 H   0  0  0  0  0  0  0  0  0  0  0  0
  -17.8709   -6.9640   -1.8602 H   0  0  0  0  0  0  0  0  0  0  0  0
  -16.0571   -8.4213   -2.6363 H   0  0  0  0  0  0  0  0  0  0  0  0
  -14.4005   -7.7091   -2.6889 H   0  0  0  0  0  0  0  0  0  0  0  0
  -17.3569   -5.7038   -3.4001 H   0  0  0  0  0  0  0  0  0  0  0  0
  -17.8546   -4.7790   -5.6465 H   0  0  0  0  0  0  0  0  0  0  0  0
  -16.5031   -5.5614   -7.5664 H   0  0  0  0  0  0  0  0  0  0  0  0
  -14.7126   -7.2102   -7.2748 H   0  0  0  0  0  0  0  0  0  0  0  0
  -13.0718   -7.9030   -4.4999 H   0  0  0  0  0  0  0  0  0  0  0  0
  -14.3001   -9.1655   -4.2465 H   0  0  0  0  0  0  0  0  0  0  0  0
  -13.6637   -8.8574   -5.8804 H   0  0  0  0  0  0  0  0  0  0  0  0
  -19.7424   -6.1997   -0.7799 H   0  0  0  0  0  0  0  0  0  0  0  0
  -15.4605   -1.8016    3.7552 N   0  0  0  0  0  0  0  0  0  0  0  0
  -16.6375   -2.3272    4.1162 C   0  0  0  0  0  0  0  0  0  0  0  0
  -17.4092   -3.1075    3.3388 N   0  0  0  0  0  0  0  0  0  0  0  0
  -16.9838   -3.3955    2.0948 C   0  0  0  0  0  0  0  0  0  0  0  0
  -15.3055   -3.1772    0.3453 C   0  0  0  0  0  0  0  0  0  0  0  0
  -14.0838   -2.6619   -0.0991 C   0  0  0  0  0  0  0  0  0  0  0  0
  -13.3100   -1.8516    0.7433 C   0  0  0  0  0  0  0  0  0  0  0  0
  -13.7542   -1.5537    2.0363 C   0  0  0  0  0  0  0  0  0  0  0  0
  -14.9791   -2.0616    2.5017 C   0  0  0  0  0  0  0  0  0  0  0  0
  -15.7538   -2.8771    1.6477 C   0  0  0  0  0  0  0  0  0  0  0  0
  -16.9963   -2.1068    5.1125 H   0  0  0  0  0  0  0  0  0  0  0  0
  -15.8934   -3.8002   -0.3143 H   0  0  0  0  0  0  0  0  0  0  0  0
  -13.7341   -2.8879   -1.0969 H   0  0  0  0  0  0  0  0  0  0  0  0
  -12.3660   -1.4563    0.3937 H   0  0  0  0  0  0  0  0  0  0  0  0
  -13.1675   -0.9313    2.6938 H   0  0  0  0  0  0  0  0  0  0  0  0
  1  2  1  0
  2  3  1  0
  3  4  1  0
  4  5  2  0
  5  6  1  0
  6  7  2  0
  7  8  1  0
  8  9  2  0
  9 10  1  0
 10 11  2  0
 11 12  1  0
 12 13  1  0
 13 14  1  0
 14 15  2  0
 14 16  1  0
 16 17  1  0
 17 18  2  0
 18 19  1  0
 19 20  2  0
 20 21  1  0
 21 22  2  0
 22 23  1  0
 12 24  2  0
  3  7  1  0
  8 24  1  0
 17 22  1  0
  1 25  1  0
  1 26  1  0
  1 27  1  0
  2 28  1  0
  2 29  1  0
  9 30  1  0
 11 31  1  0
 13 32  1  0
 16 33  1  0
 16 34  1  0
 18 35  1  0
 19 36  1  0
 20 37  1  0
 21 38  1  0
 23 39  1  0
 23 40  1  0
 23 41  1  0
 24 42  1  0
 43 44  2  0
 44 53  1  0
 44 45  1  0
 45 46  2  0
 46 52  1  0
 47 48  1  0
 47 52  2  0
 47 54  1  0
 48 49  2  0
 48 55  1  0
 49 56  1  0
 49 50  1  0
 50 57  1  0
 43 51  1  0
 50 51  2  0
 51 52  1  0
 10 46  1  0
M  END
>  <CHROM.1>  (54) 
-82.47700389,-160.56280652,0.18469452,74.79529170,-26.30661146,-18.34912369
-5.88734929,-1.34336050,2.37430369,0.07690764,1.19127423

>  <Name>  (54) 
design_0

>  <RI>  (54) 
12445400.000000

>  <Rbt.Current_Directory>  (54) 
/pylon5/mc5pksp/smaltr/gateway_workdirs/PROCESS_93251df5-8da2-4fa9-b874-71853b29d1ad

>  <Rbt.Executable>  (54) 
rbdock ($Id: //depot/dev/client3/rdock/2013.1/src/exe/rbdock.cxx#4 $)

>  <Rbt.Library>  (54) 
libRbt.so (2013.1, Build901 2013/11/27)

>  <Rbt.Parameter_File>  (54) 
/home/smaltr/software/rDock_2013.1_src//data/scripts/dock.prm

>  <Rbt.Receptor>  (54) 
/pylon5/mc5pksp/smaltr/gateway_workdirs/PROCESS_93251df5-8da2-4fa9-b874-71853b29d1ad/output/SnD-Target-Sep02/cavity/pocket_docking.prm

>  <SCORE>  (54) 
-19.693700

>  <SCORE.INTER>  (54) 
-19.878300

>  <SCORE.INTER.CONST>  (54) 
1

>  <SCORE.INTER.POLAR>  (54) 
-1.998350

>  <SCORE.INTER.REPUL>  (54) 
0

>  <SCORE.INTER.ROT>  (54) 
5

>  <SCORE.INTER.VDW>  (54) 
-23.483900

>  <SCORE.INTER.norm>  (54) 
-0.828262

>  <SCORE.INTRA>  (54) 
0.184616

>  <SCORE.INTRA.DIHEDRAL>  (54) 
0.686223

>  <SCORE.INTRA.DIHEDRAL.0>  (54) 
5.116130

>  <SCORE.INTRA.POLAR>  (54) 
0

>  <SCORE.INTRA.POLAR.0>  (54) 
0

>  <SCORE.INTRA.REPUL>  (54) 
0

>  <SCORE.INTRA.REPUL.0>  (54) 
0

>  <SCORE.INTRA.VDW>  (54) 
-0.158495

>  <SCORE.INTRA.VDW.0>  (54) 
-1.233420

>  <SCORE.INTRA.norm>  (54) 
0.007692

>  <SCORE.RESTR>  (54) 
0

>  <SCORE.RESTR.CAVITY>  (54) 
0

>  <SCORE.RESTR.norm>  (54) 
0

>  <SCORE.SYSTEM>  (54) 
0

>  <SCORE.SYSTEM.CONST>  (54) 
0

>  <SCORE.SYSTEM.DIHEDRAL>  (54) 
0

>  <SCORE.SYSTEM.norm>  (54) 
0

>  <SCORE.heavy>  (54) 
24

>  <SCORE.norm>  (54) 
-0.820569

>  <SMILES>  (54) 
CCn1nnnc1-c1cccc(NC(=O)Cc2ccccc2C)c1

>  <Cycle>  (54) 
228

>  <MolWeight>  (54) 
321.384000

>  <LogP>  (54) 
2.849620

>  <QED>  (54) 
0.784063

>  <SAS>  (54) 
2.0551966274651168

$$$$
design_0
     RDKit          3D

 57 61  0  0  0  0  0  0  0  0999 V2000
  -22.1516   -8.0657    0.8587 C   0  0  0  0  0  0  0  0  0  0  0  0
  -22.1155   -6.8694   -0.0529 C   0  0  0  0  0  0  0  0  0  0  0  0
  -22.1406   -5.6324    0.6576 N   0  0  0  0  0  0  0  0  0  0  0  0
  -23.3222   -5.1180    1.0854 N   0  0  0  0  0  0  0  0  0  0  0  0
  -23.1120   -3.9821    1.6836 N   0  0  0  0  0  0  0  0  0  0  0  0
  -21.8288   -3.7428    1.6576 N   0  0  0  0  0  0  0  0  0  0  0  0
  -21.2073   -4.7858    1.0093 C   0  0  0  0  0  0  0  0  0  0  0  0
  -19.7788   -4.8062    0.7933 C   0  0  0  0  0  0  0  0  0  0  0  0
  -18.9443   -4.0163    1.5979 C   0  0  0  0  0  0  0  0  0  0  0  0
  -17.5902   -4.0232    1.4494 C   0  0  0  0  0  0  0  0  0  0  0  0
  -16.9722   -4.8058    0.5020 C   0  0  0  0  0  0  0  0  0  0  0  0
  -17.7390   -5.5990   -0.3126 C   0  0  0  0  0  0  0  0  0  0  0  0
  -17.2078   -6.4263   -1.3205 N   0  0  0  0  0  0  0  0  0  0  0  0
  -15.8531   -6.5821   -1.6539 C   0  0  0  0  0  0  0  0  0  0  0  0
  -14.9365   -5.9819   -1.0758 O   0  0  0  0  0  0  0  0  0  0  0  0
  -15.4702   -7.5106   -2.7555 C   0  0  0  0  0  0  0  0  0  0  0  0
  -15.7651   -6.9657   -4.0851 C   0  0  0  0  0  0  0  0  0  0  0  0
  -16.7760   -6.0324   -4.2619 C   0  0  0  0  0  0  0  0  0  0  0  0
  -17.0602   -5.5123   -5.5074 C   0  0  0  0  0  0  0  0  0  0  0  0
  -16.3005   -5.9557   -6.5706 C   0  0  0  0  0  0  0  0  0  0  0  0
  -15.2908   -6.8846   -6.4100 C   0  0  0  0  0  0  0  0  0  0  0  0
  -15.0081   -7.4045   -5.1601 C   0  0  0  0  0  0  0  0  0  0  0  0
  -13.9417   -8.3976   -4.9320 C   0  0  0  0  0  0  0  0  0  0  0  0
  -19.1343   -5.5682   -0.1322 C   0  0  0  0  0  0  0  0  0  0  0  0
  -23.1223   -8.1168    1.3519 H   0  0  0  0  0  0  0  0  0  0  0  0
  -21.9930   -8.9727    0.2753 H   0  0  0  0  0  0  0  0  0  0  0  0
  -21.3673   -7.9745    1.6101 H   0  0  0  0  0  0  0  0  0  0  0  0
  -23.0073   -6.9066   -0.6785 H   0  0  0  0  0  0  0  0  0  0  0  0
  -21.2034   -6.9116   -0.6481 H   0  0  0  0  0  0  0  0  0  0  0  0
  -19.3911   -3.3803    2.3620 H   0  0  0  0  0  0  0  0  0  0  0  0
  -16.9813   -3.3929    2.0975 H   0  0  0  0  0  0  0  0  0  0  0  0
  -15.8870   -4.7957    0.4000 H   0  0  0  0  0  0  0  0  0  0  0  0
  -17.8709   -6.9640   -1.8602 H   0  0  0  0  0  0  0  0  0  0  0  0
  -16.0571   -8.4213   -2.6363 H   0  0  0  0  0  0  0  0  0  0  0  0
  -14.4005   -7.7091   -2.6889 H   0  0  0  0  0  0  0  0  0  0  0  0
  -17.3569   -5.7038   -3.4001 H   0  0  0  0  0  0  0  0  0  0  0  0
  -17.8546   -4.7790   -5.6465 H   0  0  0  0  0  0  0  0  0  0  0  0
  -14.7126   -7.2102   -7.2748 H   0  0  0  0  0  0  0  0  0  0  0  0
  -13.0718   -7.9030   -4.4999 H   0  0  0  0  0  0  0  0  0  0  0  0
  -14.3001   -9.1655   -4.2465 H   0  0  0  0  0  0  0  0  0  0  0  0
  -13.6637   -8.8574   -5.8804 H   0  0  0  0  0  0  0  0  0  0  0  0
  -19.7424   -6.1997   -0.7799 H   0  0  0  0  0  0  0  0  0  0  0  0
  -18.8666   -5.3509   -7.0216 N   0  0  0  0  0  0  0  0  0  0  0  0
  -20.0930   -4.9947   -7.4227 C   0  0  0  0  0  0  0  0  0  0  0  0
  -20.3994   -4.5032   -8.6365 N   0  0  0  0  0  0  0  0  0  0  0  0
  -19.4096   -4.3485   -9.5351 C   0  0  0  0  0  0  0  0  0  0  0  0
  -17.0551   -4.5427  -10.1214 C   0  0  0  0  0  0  0  0  0  0  0  0
  -15.7480   -4.8949   -9.7706 C   0  0  0  0  0  0  0  0  0  0  0  0
  -15.4713   -5.4033   -8.4940 C   0  0  0  0  0  0  0  0  0  0  0  0
  -16.5021   -5.5634   -7.5613 C   0  0  0  0  0  0  0  0  0  0  0  0
  -17.8222   -5.2153   -7.8942 C   0  0  0  0  0  0  0  0  0  0  0  0
  -18.0940   -4.7035   -9.1821 C   0  0  0  0  0  0  0  0  0  0  0  0
  -20.9019   -5.1116   -6.7142 H   0  0  0  0  0  0  0  0  0  0  0  0
  -19.6324   -3.9549  -10.5170 H   0  0  0  0  0  0  0  0  0  0  0  0
  -17.2554   -4.1509  -11.1090 H   0  0  0  0  0  0  0  0  0  0  0  0
  -14.9464   -4.7740  -10.4861 H   0  0  0  0  0  0  0  0  0  0  0  0
  -14.4583   -5.6740   -8.2288 H   0  0  0  0  0  0  0  0  0  0  0  0
  1  2  1  0
  2  3  1  0
  3  4  1  0
  4  5  2  0
  5  6  1  0
  6  7  2  0
  7  8  1  0
  8  9  2  0
  9 10  1  0
 10 11  2  0
 11 12  1  0
 12 13  1  0
 13 14  1  0
 14 15  2  0
 14 16  1  0
 16 17  1  0
 17 18  2  0
 18 19  1  0
 19 20  2  0
 20 21  1  0
 21 22  2  0
 22 23  1  0
 12 24  2  0
  3  7  1  0
  8 24  1  0
 17 22  1  0
  1 25  1  0
  1 26  1  0
  1 27  1  0
  2 28  1  0
  2 29  1  0
  9 30  1  0
 10 31  1  0
 11 32  1  0
 13 33  1  0
 16 34  1  0
 16 35  1  0
 18 36  1  0
 19 37  1  0
 21 38  1  0
 23 39  1  0
 23 40  1  0
 23 41  1  0
 24 42  1  0
 43 44  2  0
 44 53  1  0
 44 45  1  0
 45 46  2  0
 46 52  1  0
 46 54  1  0
 47 48  1  0
 47 52  2  0
 47 55  1  0
 48 49  2  0
 48 56  1  0
 49 57  1  0
 49 50  1  0
 43 51  1  0
 50 51  2  0
 51 52  1  0
 20 50  1  0
M  END
>  <CHROM.1>  (55) 
-82.47700389,-160.56280652,0.18469452,74.79529170,-26.30661146,-18.34912369
-5.88734929,-1.34336050,2.37430369,0.07690764,1.19127423

>  <Name>  (55) 
design_0

>  <RI>  (55) 
12445400.000000

>  <Rbt.Current_Directory>  (55) 
/pylon5/mc5pksp/smaltr/gateway_workdirs/PROCESS_93251df5-8da2-4fa9-b874-71853b29d1ad

>  <Rbt.Executable>  (55) 
rbdock ($Id: //depot/dev/client3/rdock/2013.1/src/exe/rbdock.cxx#4 $)

>  <Rbt.Library>  (55) 
libRbt.so (2013.1, Build901 2013/11/27)

>  <Rbt.Parameter_File>  (55) 
/home/smaltr/software/rDock_2013.1_src//data/scripts/dock.prm

>  <Rbt.Receptor>  (55) 
/pylon5/mc5pksp/smaltr/gateway_workdirs/PROCESS_93251df5-8da2-4fa9-b874-71853b29d1ad/output/SnD-Target-Sep02/cavity/pocket_docking.prm

>  <SCORE>  (55) 
-19.693700

>  <SCORE.INTER>  (55) 
-19.878300

>  <SCORE.INTER.CONST>  (55) 
1

>  <SCORE.INTER.POLAR>  (55) 
-1.998350

>  <SCORE.INTER.REPUL>  (55) 
0

>  <SCORE.INTER.ROT>  (55) 
5

>  <SCORE.INTER.VDW>  (55) 
-23.483900

>  <SCORE.INTER.norm>  (55) 
-0.828262

>  <SCORE.INTRA>  (55) 
0.184616

>  <SCORE.INTRA.DIHEDRAL>  (55) 
0.686223

>  <SCORE.INTRA.DIHEDRAL.0>  (55) 
5.116130

>  <SCORE.INTRA.POLAR>  (55) 
0

>  <SCORE.INTRA.POLAR.0>  (55) 
0

>  <SCORE.INTRA.REPUL>  (55) 
0

>  <SCORE.INTRA.REPUL.0>  (55) 
0

>  <SCORE.INTRA.VDW>  (55) 
-0.158495

>  <SCORE.INTRA.VDW.0>  (55) 
-1.233420

>  <SCORE.INTRA.norm>  (55) 
0.007692

>  <SCORE.RESTR>  (55) 
0

>  <SCORE.RESTR.CAVITY>  (55) 
0

>  <SCORE.RESTR.norm>  (55) 
0

>  <SCORE.SYSTEM>  (55) 
0

>  <SCORE.SYSTEM.CONST>  (55) 
0

>  <SCORE.SYSTEM.DIHEDRAL>  (55) 
0

>  <SCORE.SYSTEM.norm>  (55) 
0

>  <SCORE.heavy>  (55) 
24

>  <SCORE.norm>  (55) 
-0.820569

>  <SMILES>  (55) 
CCn1nnnc1-c1cccc(NC(=O)Cc2ccccc2C)c1

>  <Cycle>  (55) 
228

>  <MolWeight>  (55) 
321.384000

>  <LogP>  (55) 
2.849620

>  <QED>  (55) 
0.784063

>  <SAS>  (55) 
2.0129644686844372

$$$$
design_0
     RDKit          3D

 57 61  0  0  0  0  0  0  0  0999 V2000
  -22.1516   -8.0657    0.8587 C   0  0  0  0  0  0  0  0  0  0  0  0
  -22.1155   -6.8694   -0.0529 C   0  0  0  0  0  0  0  0  0  0  0  0
  -22.1406   -5.6324    0.6576 N   0  0  0  0  0  0  0  0  0  0  0  0
  -23.3222   -5.1180    1.0854 N   0  0  0  0  0  0  0  0  0  0  0  0
  -23.1120   -3.9821    1.6836 N   0  0  0  0  0  0  0  0  0  0  0  0
  -21.8288   -3.7428    1.6576 N   0  0  0  0  0  0  0  0  0  0  0  0
  -21.2073   -4.7858    1.0093 C   0  0  0  0  0  0  0  0  0  0  0  0
  -19.7788   -4.8062    0.7933 C   0  0  0  0  0  0  0  0  0  0  0  0
  -18.9443   -4.0163    1.5979 C   0  0  0  0  0  0  0  0  0  0  0  0
  -17.5902   -4.0232    1.4494 C   0  0  0  0  0  0  0  0  0  0  0  0
  -16.9722   -4.8058    0.5020 C   0  0  0  0  0  0  0  0  0  0  0  0
  -17.7390   -5.5990   -0.3126 C   0  0  0  0  0  0  0  0  0  0  0  0
  -17.2078   -6.4263   -1.3205 N   0  0  0  0  0  0  0  0  0  0  0  0
  -15.8531   -6.5821   -1.6539 C   0  0  0  0  0  0  0  0  0  0  0  0
  -14.9365   -5.9819   -1.0758 O   0  0  0  0  0  0  0  0  0  0  0  0
  -15.4702   -7.5106   -2.7555 C   0  0  0  0  0  0  0  0  0  0  0  0
  -15.7651   -6.9657   -4.0851 C   0  0  0  0  0  0  0  0  0  0  0  0
  -16.7760   -6.0324   -4.2619 C   0  0  0  0  0  0  0  0  0  0  0  0
  -17.0602   -5.5123   -5.5074 C   0  0  0  0  0  0  0  0  0  0  0  0
  -16.3005   -5.9557   -6.5706 C   0  0  0  0  0  0  0  0  0  0  0  0
  -15.2908   -6.8846   -6.4100 C   0  0  0  0  0  0  0  0  0  0  0  0
  -15.0081   -7.4045   -5.1601 C   0  0  0  0  0  0  0  0  0  0  0  0
  -13.9417   -8.3976   -4.9320 C   0  0  0  0  0  0  0  0  0  0  0  0
  -19.1343   -5.5682   -0.1322 C   0  0  0  0  0  0  0  0  0  0  0  0
  -23.1223   -8.1168    1.3519 H   0  0  0  0  0  0  0  0  0  0  0  0
  -21.9930   -8.9727    0.2753 H   0  0  0  0  0  0  0  0  0  0  0  0
  -21.3673   -7.9745    1.6101 H   0  0  0  0  0  0  0  0  0  0  0  0
  -23.0073   -6.9066   -0.6785 H   0  0  0  0  0  0  0  0  0  0  0  0
  -21.2034   -6.9116   -0.6481 H   0  0  0  0  0  0  0  0  0  0  0  0
  -19.3911   -3.3803    2.3620 H   0  0  0  0  0  0  0  0  0  0  0  0
  -16.9813   -3.3929    2.0975 H   0  0  0  0  0  0  0  0  0  0  0  0
  -15.8870   -4.7957    0.4000 H   0  0  0  0  0  0  0  0  0  0  0  0
  -17.8709   -6.9640   -1.8602 H   0  0  0  0  0  0  0  0  0  0  0  0
  -16.0571   -8.4213   -2.6363 H   0  0  0  0  0  0  0  0  0  0  0  0
  -14.4005   -7.7091   -2.6889 H   0  0  0  0  0  0  0  0  0  0  0  0
  -17.3569   -5.7038   -3.4001 H   0  0  0  0  0  0  0  0  0  0  0  0
  -17.8546   -4.7790   -5.6465 H   0  0  0  0  0  0  0  0  0  0  0  0
  -14.7126   -7.2102   -7.2748 H   0  0  0  0  0  0  0  0  0  0  0  0
  -13.0718   -7.9030   -4.4999 H   0  0  0  0  0  0  0  0  0  0  0  0
  -14.3001   -9.1655   -4.2465 H   0  0  0  0  0  0  0  0  0  0  0  0
  -13.6637   -8.8574   -5.8804 H   0  0  0  0  0  0  0  0  0  0  0  0
  -19.7424   -6.1997   -0.7799 H   0  0  0  0  0  0  0  0  0  0  0  0
  -17.0357   -4.5818  -10.0863 N   0  0  0  0  0  0  0  0  0  0  0  0
  -17.7507   -5.5550   -9.5087 C   0  0  0  0  0  0  0  0  0  0  0  0
  -17.5242   -6.0603   -8.2831 N   0  0  0  0  0  0  0  0  0  0  0  0
  -16.5023   -5.5630   -7.5623 C   0  0  0  0  0  0  0  0  0  0  0  0
  -14.6366   -4.0135   -7.3540 C   0  0  0  0  0  0  0  0  0  0  0  0
  -13.8469   -2.9941   -7.8951 C   0  0  0  0  0  0  0  0  0  0  0  0
  -14.1166   -2.4958   -9.1772 C   0  0  0  0  0  0  0  0  0  0  0  0
  -15.1798   -3.0143   -9.9247 C   0  0  0  0  0  0  0  0  0  0  0  0
  -15.9851   -4.0390   -9.3990 C   0  0  0  0  0  0  0  0  0  0  0  0
  -15.7076   -4.5365   -8.1068 C   0  0  0  0  0  0  0  0  0  0  0  0
  -18.5762   -5.9677  -10.0726 H   0  0  0  0  0  0  0  0  0  0  0  0
  -14.4177   -4.3898   -6.3644 H   0  0  0  0  0  0  0  0  0  0  0  0
  -13.0237   -2.5884   -7.3233 H   0  0  0  0  0  0  0  0  0  0  0  0
  -13.5022   -1.7072   -9.5899 H   0  0  0  0  0  0  0  0  0  0  0  0
  -15.3973   -2.6390  -10.9126 H   0  0  0  0  0  0  0  0  0  0  0  0
  1  2  1  0
  2  3  1  0
  3  4  1  0
  4  5  2  0
  5  6  1  0
  6  7  2  0
  7  8  1  0
  8  9  2  0
  9 10  1  0
 10 11  2  0
 11 12  1  0
 12 13  1  0
 13 14  1  0
 14 15  2  0
 14 16  1  0
 16 17  1  0
 17 18  2  0
 18 19  1  0
 19 20  2  0
 20 21  1  0
 21 22  2  0
 22 23  1  0
 12 24  2  0
  3  7  1  0
  8 24  1  0
 17 22  1  0
  1 25  1  0
  1 26  1  0
  1 27  1  0
  2 28  1  0
  2 29  1  0
  9 30  1  0
 10 31  1  0
 11 32  1  0
 13 33  1  0
 16 34  1  0
 16 35  1  0
 18 36  1  0
 19 37  1  0
 21 38  1  0
 23 39  1  0
 23 40  1  0
 23 41  1  0
 24 42  1  0
 43 44  2  0
 44 53  1  0
 44 45  1  0
 45 46  2  0
 46 52  1  0
 47 48  1  0
 47 52  2  0
 47 54  1  0
 48 49  2  0
 48 55  1  0
 49 56  1  0
 49 50  1  0
 50 57  1  0
 43 51  1  0
 50 51  2  0
 51 52  1  0
 20 46  1  0
M  END
>  <CHROM.1>  (56) 
-82.47700389,-160.56280652,0.18469452,74.79529170,-26.30661146,-18.34912369
-5.88734929,-1.34336050,2.37430369,0.07690764,1.19127423

>  <Name>  (56) 
design_0

>  <RI>  (56) 
12445400.000000

>  <Rbt.Current_Directory>  (56) 
/pylon5/mc5pksp/smaltr/gateway_workdirs/PROCESS_93251df5-8da2-4fa9-b874-71853b29d1ad

>  <Rbt.Executable>  (56) 
rbdock ($Id: //depot/dev/client3/rdock/2013.1/src/exe/rbdock.cxx#4 $)

>  <Rbt.Library>  (56) 
libRbt.so (2013.1, Build901 2013/11/27)

>  <Rbt.Parameter_File>  (56) 
/home/smaltr/software/rDock_2013.1_src//data/scripts/dock.prm

>  <Rbt.Receptor>  (56) 
/pylon5/mc5pksp/smaltr/gateway_workdirs/PROCESS_93251df5-8da2-4fa9-b874-71853b29d1ad/output/SnD-Target-Sep02/cavity/pocket_docking.prm

>  <SCORE>  (56) 
-19.693700

>  <SCORE.INTER>  (56) 
-19.878300

>  <SCORE.INTER.CONST>  (56) 
1

>  <SCORE.INTER.POLAR>  (56) 
-1.998350

>  <SCORE.INTER.REPUL>  (56) 
0

>  <SCORE.INTER.ROT>  (56) 
5

>  <SCORE.INTER.VDW>  (56) 
-23.483900

>  <SCORE.INTER.norm>  (56) 
-0.828262

>  <SCORE.INTRA>  (56) 
0.184616

>  <SCORE.INTRA.DIHEDRAL>  (56) 
0.686223

>  <SCORE.INTRA.DIHEDRAL.0>  (56) 
5.116130

>  <SCORE.INTRA.POLAR>  (56) 
0

>  <SCORE.INTRA.POLAR.0>  (56) 
0

>  <SCORE.INTRA.REPUL>  (56) 
0

>  <SCORE.INTRA.REPUL.0>  (56) 
0

>  <SCORE.INTRA.VDW>  (56) 
-0.158495

>  <SCORE.INTRA.VDW.0>  (56) 
-1.233420

>  <SCORE.INTRA.norm>  (56) 
0.007692

>  <SCORE.RESTR>  (56) 
0

>  <SCORE.RESTR.CAVITY>  (56) 
0

>  <SCORE.RESTR.norm>  (56) 
0

>  <SCORE.SYSTEM>  (56) 
0

>  <SCORE.SYSTEM.CONST>  (56) 
0

>  <SCORE.SYSTEM.DIHEDRAL>  (56) 
0

>  <SCORE.SYSTEM.norm>  (56) 
0

>  <SCORE.heavy>  (56) 
24

>  <SCORE.norm>  (56) 
-0.820569

>  <SMILES>  (56) 
CCn1nnnc1-c1cccc(NC(=O)Cc2ccccc2C)c1

>  <Cycle>  (56) 
228

>  <MolWeight>  (56) 
321.384000

>  <LogP>  (56) 
2.849620

>  <QED>  (56) 
0.784063

>  <SAS>  (56) 
2.0551966274651168

$$$$
design_0
     RDKit          3D

 57 61  0  0  0  0  0  0  0  0999 V2000
  -22.1516   -8.0657    0.8587 C   0  0  0  0  0  0  0  0  0  0  0  0
  -22.1155   -6.8694   -0.0529 C   0  0  0  0  0  0  0  0  0  0  0  0
  -22.1406   -5.6324    0.6576 N   0  0  0  0  0  0  0  0  0  0  0  0
  -23.3222   -5.1180    1.0854 N   0  0  0  0  0  0  0  0  0  0  0  0
  -23.1120   -3.9821    1.6836 N   0  0  0  0  0  0  0  0  0  0  0  0
  -21.8288   -3.7428    1.6576 N   0  0  0  0  0  0  0  0  0  0  0  0
  -21.2073   -4.7858    1.0093 C   0  0  0  0  0  0  0  0  0  0  0  0
  -19.7788   -4.8062    0.7933 C   0  0  0  0  0  0  0  0  0  0  0  0
  -18.9443   -4.0163    1.5979 C   0  0  0  0  0  0  0  0  0  0  0  0
  -17.5902   -4.0232    1.4494 C   0  0  0  0  0  0  0  0  0  0  0  0
  -16.9722   -4.8058    0.5020 C   0  0  0  0  0  0  0  0  0  0  0  0
  -17.7390   -5.5990   -0.3126 C   0  0  0  0  0  0  0  0  0  0  0  0
  -17.2078   -6.4263   -1.3205 N   0  0  0  0  0  0  0  0  0  0  0  0
  -15.8531   -6.5821   -1.6539 C   0  0  0  0  0  0  0  0  0  0  0  0
  -14.9365   -5.9819   -1.0758 O   0  0  0  0  0  0  0  0  0  0  0  0
  -15.4702   -7.5106   -2.7555 C   0  0  0  0  0  0  0  0  0  0  0  0
  -15.7651   -6.9657   -4.0851 C   0  0  0  0  0  0  0  0  0  0  0  0
  -16.7760   -6.0324   -4.2619 C   0  0  0  0  0  0  0  0  0  0  0  0
  -17.0602   -5.5123   -5.5074 C   0  0  0  0  0  0  0  0  0  0  0  0
  -16.3005   -5.9557   -6.5706 C   0  0  0  0  0  0  0  0  0  0  0  0
  -15.2908   -6.8846   -6.4100 C   0  0  0  0  0  0  0  0  0  0  0  0
  -15.0081   -7.4045   -5.1601 C   0  0  0  0  0  0  0  0  0  0  0  0
  -13.9417   -8.3976   -4.9320 C   0  0  0  0  0  0  0  0  0  0  0  0
  -19.1343   -5.5682   -0.1322 C   0  0  0  0  0  0  0  0  0  0  0  0
  -23.1223   -8.1168    1.3519 H   0  0  0  0  0  0  0  0  0  0  0  0
  -21.9930   -8.9727    0.2753 H   0  0  0  0  0  0  0  0  0  0  0  0
  -21.3673   -7.9745    1.6101 H   0  0  0  0  0  0  0  0  0  0  0  0
  -23.0073   -6.9066   -0.6785 H   0  0  0  0  0  0  0  0  0  0  0  0
  -21.2034   -6.9116   -0.6481 H   0  0  0  0  0  0  0  0  0  0  0  0
  -19.3911   -3.3803    2.3620 H   0  0  0  0  0  0  0  0  0  0  0  0
  -16.9813   -3.3929    2.0975 H   0  0  0  0  0  0  0  0  0  0  0  0
  -15.8870   -4.7957    0.4000 H   0  0  0  0  0  0  0  0  0  0  0  0
  -17.8709   -6.9640   -1.8602 H   0  0  0  0  0  0  0  0  0  0  0  0
  -16.0571   -8.4213   -2.6363 H   0  0  0  0  0  0  0  0  0  0  0  0
  -14.4005   -7.7091   -2.6889 H   0  0  0  0  0  0  0  0  0  0  0  0
  -17.3569   -5.7038   -3.4001 H   0  0  0  0  0  0  0  0  0  0  0  0
  -16.5031   -5.5614   -7.5664 H   0  0  0  0  0  0  0  0  0  0  0  0
  -14.7126   -7.2102   -7.2748 H   0  0  0  0  0  0  0  0  0  0  0  0
  -13.0718   -7.9030   -4.4999 H   0  0  0  0  0  0  0  0  0  0  0  0
  -14.3001   -9.1655   -4.2465 H   0  0  0  0  0  0  0  0  0  0  0  0
  -13.6637   -8.8574   -5.8804 H   0  0  0  0  0  0  0  0  0  0  0  0
  -19.7424   -6.1997   -0.7799 H   0  0  0  0  0  0  0  0  0  0  0  0
  -16.6048   -3.1505   -4.3376 N   0  0  0  0  0  0  0  0  0  0  0  0
  -16.5476   -1.9159   -3.8234 C   0  0  0  0  0  0  0  0  0  0  0  0
  -17.4962   -0.9729   -3.9638 N   0  0  0  0  0  0  0  0  0  0  0  0
  -18.5992   -1.2725   -4.6743 C   0  0  0  0  0  0  0  0  0  0  0  0
  -19.8820   -2.8702   -5.9885 C   0  0  0  0  0  0  0  0  0  0  0  0
  -20.0093   -4.1425   -6.5549 C   0  0  0  0  0  0  0  0  0  0  0  0
  -18.9965   -5.0965   -6.3850 C   0  0  0  0  0  0  0  0  0  0  0  0
  -17.8505   -4.7827   -5.6458 C   0  0  0  0  0  0  0  0  0  0  0  0
  -17.7034   -3.5099   -5.0688 C   0  0  0  0  0  0  0  0  0  0  0  0
  -18.7276   -2.5534   -5.2439 C   0  0  0  0  0  0  0  0  0  0  0  0
  -15.6685   -1.6561   -3.2493 H   0  0  0  0  0  0  0  0  0  0  0  0
  -19.3748   -0.5301   -4.8006 H   0  0  0  0  0  0  0  0  0  0  0  0
  -20.6698   -2.1430   -6.1274 H   0  0  0  0  0  0  0  0  0  0  0  0
  -20.8919   -4.3922   -7.1272 H   0  0  0  0  0  0  0  0  0  0  0  0
  -19.1010   -6.0788   -6.8254 H   0  0  0  0  0  0  0  0  0  0  0  0
  1  2  1  0
  2  3  1  0
  3  4  1  0
  4  5  2  0
  5  6  1  0
  6  7  2  0
  7  8  1  0
  8  9  2  0
  9 10  1  0
 10 11  2  0
 11 12  1  0
 12 13  1  0
 13 14  1  0
 14 15  2  0
 14 16  1  0
 16 17  1  0
 17 18  2  0
 18 19  1  0
 19 20  2  0
 20 21  1  0
 21 22  2  0
 22 23  1  0
 12 24  2  0
  3  7  1  0
  8 24  1  0
 17 22  1  0
  1 25  1  0
  1 26  1  0
  1 27  1  0
  2 28  1  0
  2 29  1  0
  9 30  1  0
 10 31  1  0
 11 32  1  0
 13 33  1  0
 16 34  1  0
 16 35  1  0
 18 36  1  0
 20 37  1  0
 21 38  1  0
 23 39  1  0
 23 40  1  0
 23 41  1  0
 24 42  1  0
 43 44  2  0
 44 53  1  0
 44 45  1  0
 45 46  2  0
 46 52  1  0
 46 54  1  0
 47 48  1  0
 47 52  2  0
 47 55  1  0
 48 49  2  0
 48 56  1  0
 49 57  1  0
 49 50  1  0
 43 51  1  0
 50 51  2  0
 51 52  1  0
 19 50  1  0
M  END
>  <CHROM.1>  (57) 
-82.47700389,-160.56280652,0.18469452,74.79529170,-26.30661146,-18.34912369
-5.88734929,-1.34336050,2.37430369,0.07690764,1.19127423

>  <Name>  (57) 
design_0

>  <RI>  (57) 
12445400.000000

>  <Rbt.Current_Directory>  (57) 
/pylon5/mc5pksp/smaltr/gateway_workdirs/PROCESS_93251df5-8da2-4fa9-b874-71853b29d1ad

>  <Rbt.Executable>  (57) 
rbdock ($Id: //depot/dev/client3/rdock/2013.1/src/exe/rbdock.cxx#4 $)

>  <Rbt.Library>  (57) 
libRbt.so (2013.1, Build901 2013/11/27)

>  <Rbt.Parameter_File>  (57) 
/home/smaltr/software/rDock_2013.1_src//data/scripts/dock.prm

>  <Rbt.Receptor>  (57) 
/pylon5/mc5pksp/smaltr/gateway_workdirs/PROCESS_93251df5-8da2-4fa9-b874-71853b29d1ad/output/SnD-Target-Sep02/cavity/pocket_docking.prm

>  <SCORE>  (57) 
-19.693700

>  <SCORE.INTER>  (57) 
-19.878300

>  <SCORE.INTER.CONST>  (57) 
1

>  <SCORE.INTER.POLAR>  (57) 
-1.998350

>  <SCORE.INTER.REPUL>  (57) 
0

>  <SCORE.INTER.ROT>  (57) 
5

>  <SCORE.INTER.VDW>  (57) 
-23.483900

>  <SCORE.INTER.norm>  (57) 
-0.828262

>  <SCORE.INTRA>  (57) 
0.184616

>  <SCORE.INTRA.DIHEDRAL>  (57) 
0.686223

>  <SCORE.INTRA.DIHEDRAL.0>  (57) 
5.116130

>  <SCORE.INTRA.POLAR>  (57) 
0

>  <SCORE.INTRA.POLAR.0>  (57) 
0

>  <SCORE.INTRA.REPUL>  (57) 
0

>  <SCORE.INTRA.REPUL.0>  (57) 
0

>  <SCORE.INTRA.VDW>  (57) 
-0.158495

>  <SCORE.INTRA.VDW.0>  (57) 
-1.233420

>  <SCORE.INTRA.norm>  (57) 
0.007692

>  <SCORE.RESTR>  (57) 
0

>  <SCORE.RESTR.CAVITY>  (57) 
0

>  <SCORE.RESTR.norm>  (57) 
0

>  <SCORE.SYSTEM>  (57) 
0

>  <SCORE.SYSTEM.CONST>  (57) 
0

>  <SCORE.SYSTEM.DIHEDRAL>  (57) 
0

>  <SCORE.SYSTEM.norm>  (57) 
0

>  <SCORE.heavy>  (57) 
24

>  <SCORE.norm>  (57) 
-0.820569

>  <SMILES>  (57) 
CCn1nnnc1-c1cccc(NC(=O)Cc2ccccc2C)c1

>  <Cycle>  (57) 
228

>  <MolWeight>  (57) 
321.384000

>  <LogP>  (57) 
2.849620

>  <QED>  (57) 
0.784063

>  <SAS>  (57) 
2.0129644686844372

$$$$
design_0
     RDKit          3D

 57 61  0  0  0  0  0  0  0  0999 V2000
  -22.1516   -8.0657    0.8587 C   0  0  0  0  0  0  0  0  0  0  0  0
  -22.1155   -6.8694   -0.0529 C   0  0  0  0  0  0  0  0  0  0  0  0
  -22.1406   -5.6324    0.6576 N   0  0  0  0  0  0  0  0  0  0  0  0
  -23.3222   -5.1180    1.0854 N   0  0  0  0  0  0  0  0  0  0  0  0
  -23.1120   -3.9821    1.6836 N   0  0  0  0  0  0  0  0  0  0  0  0
  -21.8288   -3.7428    1.6576 N   0  0  0  0  0  0  0  0  0  0  0  0
  -21.2073   -4.7858    1.0093 C   0  0  0  0  0  0  0  0  0  0  0  0
  -19.7788   -4.8062    0.7933 C   0  0  0  0  0  0  0  0  0  0  0  0
  -18.9443   -4.0163    1.5979 C   0  0  0  0  0  0  0  0  0  0  0  0
  -17.5902   -4.0232    1.4494 C   0  0  0  0  0  0  0  0  0  0  0  0
  -16.9722   -4.8058    0.5020 C   0  0  0  0  0  0  0  0  0  0  0  0
  -17.7390   -5.5990   -0.3126 C   0  0  0  0  0  0  0  0  0  0  0  0
  -17.2078   -6.4263   -1.3205 N   0  0  0  0  0  0  0  0  0  0  0  0
  -15.8531   -6.5821   -1.6539 C   0  0  0  0  0  0  0  0  0  0  0  0
  -14.9365   -5.9819   -1.0758 O   0  0  0  0  0  0  0  0  0  0  0  0
  -15.4702   -7.5106   -2.7555 C   0  0  0  0  0  0  0  0  0  0  0  0
  -15.7651   -6.9657   -4.0851 C   0  0  0  0  0  0  0  0  0  0  0  0
  -16.7760   -6.0324   -4.2619 C   0  0  0  0  0  0  0  0  0  0  0  0
  -17.0602   -5.5123   -5.5074 C   0  0  0  0  0  0  0  0  0  0  0  0
  -16.3005   -5.9557   -6.5706 C   0  0  0  0  0  0  0  0  0  0  0  0
  -15.2908   -6.8846   -6.4100 C   0  0  0  0  0  0  0  0  0  0  0  0
  -15.0081   -7.4045   -5.1601 C   0  0  0  0  0  0  0  0  0  0  0  0
  -13.9417   -8.3976   -4.9320 C   0  0  0  0  0  0  0  0  0  0  0  0
  -19.1343   -5.5682   -0.1322 C   0  0  0  0  0  0  0  0  0  0  0  0
  -23.1223   -8.1168    1.3519 H   0  0  0  0  0  0  0  0  0  0  0  0
  -21.9930   -8.9727    0.2753 H   0  0  0  0  0  0  0  0  0  0  0  0
  -21.3673   -7.9745    1.6101 H   0  0  0  0  0  0  0  0  0  0  0  0
  -23.0073   -6.9066   -0.6785 H   0  0  0  0  0  0  0  0  0  0  0  0
  -21.2034   -6.9116   -0.6481 H   0  0  0  0  0  0  0  0  0  0  0  0
  -19.3911   -3.3803    2.3620 H   0  0  0  0  0  0  0  0  0  0  0  0
  -16.9813   -3.3929    2.0975 H   0  0  0  0  0  0  0  0  0  0  0  0
  -15.8870   -4.7957    0.4000 H   0  0  0  0  0  0  0  0  0  0  0  0
  -17.8709   -6.9640   -1.8602 H   0  0  0  0  0  0  0  0  0  0  0  0
  -16.0571   -8.4213   -2.6363 H   0  0  0  0  0  0  0  0  0  0  0  0
  -14.4005   -7.7091   -2.6889 H   0  0  0  0  0  0  0  0  0  0  0  0
  -17.3569   -5.7038   -3.4001 H   0  0  0  0  0  0  0  0  0  0  0  0
  -16.5031   -5.5614   -7.5664 H   0  0  0  0  0  0  0  0  0  0  0  0
  -14.7126   -7.2102   -7.2748 H   0  0  0  0  0  0  0  0  0  0  0  0
  -13.0718   -7.9030   -4.4999 H   0  0  0  0  0  0  0  0  0  0  0  0
  -14.3001   -9.1655   -4.2465 H   0  0  0  0  0  0  0  0  0  0  0  0
  -13.6637   -8.8574   -5.8804 H   0  0  0  0  0  0  0  0  0  0  0  0
  -19.7424   -6.1997   -0.7799 H   0  0  0  0  0  0  0  0  0  0  0  0
  -19.8809   -2.9450   -5.9976 N   0  0  0  0  0  0  0  0  0  0  0  0
  -20.0927   -4.2608   -5.8728 C   0  0  0  0  0  0  0  0  0  0  0  0
  -19.1335   -5.1875   -5.7002 N   0  0  0  0  0  0  0  0  0  0  0  0
  -17.8513   -4.7820   -5.6459 C   0  0  0  0  0  0  0  0  0  0  0  0
  -16.2120   -2.9839   -5.7126 C   0  0  0  0  0  0  0  0  0  0  0  0
  -15.9166   -1.6225   -5.8357 C   0  0  0  0  0  0  0  0  0  0  0  0
  -16.9468   -0.6890   -6.0151 C   0  0  0  0  0  0  0  0  0  0  0  0
  -18.2791   -1.1130   -6.0711 C   0  0  0  0  0  0  0  0  0  0  0  0
  -18.5969   -2.4765   -5.9497 C   0  0  0  0  0  0  0  0  0  0  0  0
  -17.5541   -3.4116   -5.7693 C   0  0  0  0  0  0  0  0  0  0  0  0
  -21.1169   -4.6062   -5.9141 H   0  0  0  0  0  0  0  0  0  0  0  0
  -15.4084   -3.6940   -5.5754 H   0  0  0  0  0  0  0  0  0  0  0  0
  -14.8895   -1.2875   -5.7933 H   0  0  0  0  0  0  0  0  0  0  0  0
  -16.7118    0.3624   -6.1095 H   0  0  0  0  0  0  0  0  0  0  0  0
  -19.0807   -0.4040   -6.2089 H   0  0  0  0  0  0  0  0  0  0  0  0
  1  2  1  0
  2  3  1  0
  3  4  1  0
  4  5  2  0
  5  6  1  0
  6  7  2  0
  7  8  1  0
  8  9  2  0
  9 10  1  0
 10 11  2  0
 11 12  1  0
 12 13  1  0
 13 14  1  0
 14 15  2  0
 14 16  1  0
 16 17  1  0
 17 18  2  0
 18 19  1  0
 19 20  2  0
 20 21  1  0
 21 22  2  0
 22 23  1  0
 12 24  2  0
  3  7  1  0
  8 24  1  0
 17 22  1  0
  1 25  1  0
  1 26  1  0
  1 27  1  0
  2 28  1  0
  2 29  1  0
  9 30  1  0
 10 31  1  0
 11 32  1  0
 13 33  1  0
 16 34  1  0
 16 35  1  0
 18 36  1  0
 20 37  1  0
 21 38  1  0
 23 39  1  0
 23 40  1  0
 23 41  1  0
 24 42  1  0
 43 44  2  0
 44 53  1  0
 44 45  1  0
 45 46  2  0
 46 52  1  0
 47 48  1  0
 47 52  2  0
 47 54  1  0
 48 49  2  0
 48 55  1  0
 49 56  1  0
 49 50  1  0
 50 57  1  0
 43 51  1  0
 50 51  2  0
 51 52  1  0
 19 46  1  0
M  END
>  <CHROM.1>  (58) 
-82.47700389,-160.56280652,0.18469452,74.79529170,-26.30661146,-18.34912369
-5.88734929,-1.34336050,2.37430369,0.07690764,1.19127423

>  <Name>  (58) 
design_0

>  <RI>  (58) 
12445400.000000

>  <Rbt.Current_Directory>  (58) 
/pylon5/mc5pksp/smaltr/gateway_workdirs/PROCESS_93251df5-8da2-4fa9-b874-71853b29d1ad

>  <Rbt.Executable>  (58) 
rbdock ($Id: //depot/dev/client3/rdock/2013.1/src/exe/rbdock.cxx#4 $)

>  <Rbt.Library>  (58) 
libRbt.so (2013.1, Build901 2013/11/27)

>  <Rbt.Parameter_File>  (58) 
/home/smaltr/software/rDock_2013.1_src//data/scripts/dock.prm

>  <Rbt.Receptor>  (58) 
/pylon5/mc5pksp/smaltr/gateway_workdirs/PROCESS_93251df5-8da2-4fa9-b874-71853b29d1ad/output/SnD-Target-Sep02/cavity/pocket_docking.prm

>  <SCORE>  (58) 
-19.693700

>  <SCORE.INTER>  (58) 
-19.878300

>  <SCORE.INTER.CONST>  (58) 
1

>  <SCORE.INTER.POLAR>  (58) 
-1.998350

>  <SCORE.INTER.REPUL>  (58) 
0

>  <SCORE.INTER.ROT>  (58) 
5

>  <SCORE.INTER.VDW>  (58) 
-23.483900

>  <SCORE.INTER.norm>  (58) 
-0.828262

>  <SCORE.INTRA>  (58) 
0.184616

>  <SCORE.INTRA.DIHEDRAL>  (58) 
0.686223

>  <SCORE.INTRA.DIHEDRAL.0>  (58) 
5.116130

>  <SCORE.INTRA.POLAR>  (58) 
0

>  <SCORE.INTRA.POLAR.0>  (58) 
0

>  <SCORE.INTRA.REPUL>  (58) 
0

>  <SCORE.INTRA.REPUL.0>  (58) 
0

>  <SCORE.INTRA.VDW>  (58) 
-0.158495

>  <SCORE.INTRA.VDW.0>  (58) 
-1.233420

>  <SCORE.INTRA.norm>  (58) 
0.007692

>  <SCORE.RESTR>  (58) 
0

>  <SCORE.RESTR.CAVITY>  (58) 
0

>  <SCORE.RESTR.norm>  (58) 
0

>  <SCORE.SYSTEM>  (58) 
0

>  <SCORE.SYSTEM.CONST>  (58) 
0

>  <SCORE.SYSTEM.DIHEDRAL>  (58) 
0

>  <SCORE.SYSTEM.norm>  (58) 
0

>  <SCORE.heavy>  (58) 
24

>  <SCORE.norm>  (58) 
-0.820569

>  <SMILES>  (58) 
CCn1nnnc1-c1cccc(NC(=O)Cc2ccccc2C)c1

>  <Cycle>  (58) 
228

>  <MolWeight>  (58) 
321.384000

>  <LogP>  (58) 
2.849620

>  <QED>  (58) 
0.784063

>  <SAS>  (58) 
2.0551966274651168

$$$$
design_0
     RDKit          3D

 57 61  0  0  0  0  0  0  0  0999 V2000
  -22.1516   -8.0657    0.8587 C   0  0  0  0  0  0  0  0  0  0  0  0
  -22.1155   -6.8694   -0.0529 C   0  0  0  0  0  0  0  0  0  0  0  0
  -22.1406   -5.6324    0.6576 N   0  0  0  0  0  0  0  0  0  0  0  0
  -23.3222   -5.1180    1.0854 N   0  0  0  0  0  0  0  0  0  0  0  0
  -23.1120   -3.9821    1.6836 N   0  0  0  0  0  0  0  0  0  0  0  0
  -21.8288   -3.7428    1.6576 N   0  0  0  0  0  0  0  0  0  0  0  0
  -21.2073   -4.7858    1.0093 C   0  0  0  0  0  0  0  0  0  0  0  0
  -19.7788   -4.8062    0.7933 C   0  0  0  0  0  0  0  0  0  0  0  0
  -18.9443   -4.0163    1.5979 C   0  0  0  0  0  0  0  0  0  0  0  0
  -17.5902   -4.0232    1.4494 C   0  0  0  0  0  0  0  0  0  0  0  0
  -16.9722   -4.8058    0.5020 C   0  0  0  0  0  0  0  0  0  0  0  0
  -17.7390   -5.5990   -0.3126 C   0  0  0  0  0  0  0  0  0  0  0  0
  -17.2078   -6.4263   -1.3205 N   0  0  0  0  0  0  0  0  0  0  0  0
  -15.8531   -6.5821   -1.6539 C   0  0  0  0  0  0  0  0  0  0  0  0
  -14.9365   -5.9819   -1.0758 O   0  0  0  0  0  0  0  0  0  0  0  0
  -15.4702   -7.5106   -2.7555 C   0  0  0  0  0  0  0  0  0  0  0  0
  -15.7651   -6.9657   -4.0851 C   0  0  0  0  0  0  0  0  0  0  0  0
  -16.7760   -6.0324   -4.2619 C   0  0  0  0  0  0  0  0  0  0  0  0
  -17.0602   -5.5123   -5.5074 C   0  0  0  0  0  0  0  0  0  0  0  0
  -16.3005   -5.9557   -6.5706 C   0  0  0  0  0  0  0  0  0  0  0  0
  -15.2908   -6.8846   -6.4100 C   0  0  0  0  0  0  0  0  0  0  0  0
  -15.0081   -7.4045   -5.1601 C   0  0  0  0  0  0  0  0  0  0  0  0
  -13.9417   -8.3976   -4.9320 C   0  0  0  0  0  0  0  0  0  0  0  0
  -19.1343   -5.5682   -0.1322 C   0  0  0  0  0  0  0  0  0  0  0  0
  -23.1223   -8.1168    1.3519 H   0  0  0  0  0  0  0  0  0  0  0  0
  -21.9930   -8.9727    0.2753 H   0  0  0  0  0  0  0  0  0  0  0  0
  -21.3673   -7.9745    1.6101 H   0  0  0  0  0  0  0  0  0  0  0  0
  -23.0073   -6.9066   -0.6785 H   0  0  0  0  0  0  0  0  0  0  0  0
  -21.2034   -6.9116   -0.6481 H   0  0  0  0  0  0  0  0  0  0  0  0
  -16.9813   -3.3929    2.0975 H   0  0  0  0  0  0  0  0  0  0  0  0
  -15.8870   -4.7957    0.4000 H   0  0  0  0  0  0  0  0  0  0  0  0
  -17.8709   -6.9640   -1.8602 H   0  0  0  0  0  0  0  0  0  0  0  0
  -16.0571   -8.4213   -2.6363 H   0  0  0  0  0  0  0  0  0  0  0  0
  -14.4005   -7.7091   -2.6889 H   0  0  0  0  0  0  0  0  0  0  0  0
  -17.3569   -5.7038   -3.4001 H   0  0  0  0  0  0  0  0  0  0  0  0
  -17.8546   -4.7790   -5.6465 H   0  0  0  0  0  0  0  0  0  0  0  0
  -16.5031   -5.5614   -7.5664 H   0  0  0  0  0  0  0  0  0  0  0  0
  -14.7126   -7.2102   -7.2748 H   0  0  0  0  0  0  0  0  0  0  0  0
  -13.0718   -7.9030   -4.4999 H   0  0  0  0  0  0  0  0  0  0  0  0
  -14.3001   -9.1655   -4.2465 H   0  0  0  0  0  0  0  0  0  0  0  0
  -13.6637   -8.8574   -5.8804 H   0  0  0  0  0  0  0  0  0  0  0  0
  -19.7424   -6.1997   -0.7799 H   0  0  0  0  0  0  0  0  0  0  0  0
  -17.4910   -3.7797    3.8308 N   0  0  0  0  0  0  0  0  0  0  0  0
  -16.9050   -3.5472    5.0116 C   0  0  0  0  0  0  0  0  0  0  0  0
  -17.4096   -2.7726    5.9884 N   0  0  0  0  0  0  0  0  0  0  0  0
  -18.5972   -2.1733    5.7837 C   0  0  0  0  0  0  0  0  0  0  0  0
  -20.5155   -1.7476    4.3472 C   0  0  0  0  0  0  0  0  0  0  0  0
  -21.1851   -1.9464    3.1356 C   0  0  0  0  0  0  0  0  0  0  0  0
  -20.6236   -2.7614    2.1430 C   0  0  0  0  0  0  0  0  0  0  0  0
  -19.3888   -3.3835    2.3581 C   0  0  0  0  0  0  0  0  0  0  0  0
  -18.7000   -3.1964    3.5686 C   0  0  0  0  0  0  0  0  0  0  0  0
  -19.2714   -2.3738    4.5643 C   0  0  0  0  0  0  0  0  0  0  0  0
  -15.9495   -4.0200    5.1947 H   0  0  0  0  0  0  0  0  0  0  0  0
  -19.0220   -1.5459    6.5547 H   0  0  0  0  0  0  0  0  0  0  0  0
  -20.9588   -1.1160    5.1044 H   0  0  0  0  0  0  0  0  0  0  0  0
  -22.1396   -1.4690    2.9623 H   0  0  0  0  0  0  0  0  0  0  0  0
  -21.1465   -2.9113    1.2082 H   0  0  0  0  0  0  0  0  0  0  0  0
  1  2  1  0
  2  3  1  0
  3  4  1  0
  4  5  2  0
  5  6  1  0
  6  7  2  0
  7  8  1  0
  8  9  1  0
  9 10  2  0
 10 11  1  0
 11 12  2  0
 12 13  1  0
 13 14  1  0
 14 15  2  0
 14 16  1  0
 16 17  1  0
 17 18  2  0
 18 19  1  0
 19 20  2  0
 20 21  1  0
 21 22  2  0
 22 23  1  0
 12 24  1  0
  3  7  1  0
  8 24  2  0
 17 22  1  0
  1 25  1  0
  1 26  1  0
  1 27  1  0
  2 28  1  0
  2 29  1  0
 10 30  1  0
 11 31  1  0
 13 32  1  0
 16 33  1  0
 16 34  1  0
 18 35  1  0
 19 36  1  0
 20 37  1  0
 21 38  1  0
 23 39  1  0
 23 40  1  0
 23 41  1  0
 24 42  1  0
 43 44  2  0
 44 53  1  0
 44 45  1  0
 45 46  2  0
 46 52  1  0
 46 54  1  0
 47 48  1  0
 47 52  2  0
 47 55  1  0
 48 49  2  0
 48 56  1  0
 49 57  1  0
 49 50  1  0
 43 51  1  0
 50 51  2  0
 51 52  1  0
  9 50  1  0
M  END
>  <CHROM.1>  (59) 
-82.47700389,-160.56280652,0.18469452,74.79529170,-26.30661146,-18.34912369
-5.88734929,-1.34336050,2.37430369,0.07690764,1.19127423

>  <Name>  (59) 
design_0

>  <RI>  (59) 
12445400.000000

>  <Rbt.Current_Directory>  (59) 
/pylon5/mc5pksp/smaltr/gateway_workdirs/PROCESS_93251df5-8da2-4fa9-b874-71853b29d1ad

>  <Rbt.Executable>  (59) 
rbdock ($Id: //depot/dev/client3/rdock/2013.1/src/exe/rbdock.cxx#4 $)

>  <Rbt.Library>  (59) 
libRbt.so (2013.1, Build901 2013/11/27)

>  <Rbt.Parameter_File>  (59) 
/home/smaltr/software/rDock_2013.1_src//data/scripts/dock.prm

>  <Rbt.Receptor>  (59) 
/pylon5/mc5pksp/smaltr/gateway_workdirs/PROCESS_93251df5-8da2-4fa9-b874-71853b29d1ad/output/SnD-Target-Sep02/cavity/pocket_docking.prm

>  <SCORE>  (59) 
-19.693700

>  <SCORE.INTER>  (59) 
-19.878300

>  <SCORE.INTER.CONST>  (59) 
1

>  <SCORE.INTER.POLAR>  (59) 
-1.998350

>  <SCORE.INTER.REPUL>  (59) 
0

>  <SCORE.INTER.ROT>  (59) 
5

>  <SCORE.INTER.VDW>  (59) 
-23.483900

>  <SCORE.INTER.norm>  (59) 
-0.828262

>  <SCORE.INTRA>  (59) 
0.184616

>  <SCORE.INTRA.DIHEDRAL>  (59) 
0.686223

>  <SCORE.INTRA.DIHEDRAL.0>  (59) 
5.116130

>  <SCORE.INTRA.POLAR>  (59) 
0

>  <SCORE.INTRA.POLAR.0>  (59) 
0

>  <SCORE.INTRA.REPUL>  (59) 
0

>  <SCORE.INTRA.REPUL.0>  (59) 
0

>  <SCORE.INTRA.VDW>  (59) 
-0.158495

>  <SCORE.INTRA.VDW.0>  (59) 
-1.233420

>  <SCORE.INTRA.norm>  (59) 
0.007692

>  <SCORE.RESTR>  (59) 
0

>  <SCORE.RESTR.CAVITY>  (59) 
0

>  <SCORE.RESTR.norm>  (59) 
0

>  <SCORE.SYSTEM>  (59) 
0

>  <SCORE.SYSTEM.CONST>  (59) 
0

>  <SCORE.SYSTEM.DIHEDRAL>  (59) 
0

>  <SCORE.SYSTEM.norm>  (59) 
0

>  <SCORE.heavy>  (59) 
24

>  <SCORE.norm>  (59) 
-0.820569

>  <SMILES>  (59) 
CCn1nnnc1-c1cccc(NC(=O)Cc2ccccc2C)c1

>  <Cycle>  (59) 
228

>  <MolWeight>  (59) 
321.384000

>  <LogP>  (59) 
2.849620

>  <QED>  (59) 
0.784063

>  <SAS>  (59) 
2.0129644686844372

$$$$
design_0
     RDKit          3D

 57 61  0  0  0  0  0  0  0  0999 V2000
  -22.1516   -8.0657    0.8587 C   0  0  0  0  0  0  0  0  0  0  0  0
  -22.1155   -6.8694   -0.0529 C   0  0  0  0  0  0  0  0  0  0  0  0
  -22.1406   -5.6324    0.6576 N   0  0  0  0  0  0  0  0  0  0  0  0
  -23.3222   -5.1180    1.0854 N   0  0  0  0  0  0  0  0  0  0  0  0
  -23.1120   -3.9821    1.6836 N   0  0  0  0  0  0  0  0  0  0  0  0
  -21.8288   -3.7428    1.6576 N   0  0  0  0  0  0  0  0  0  0  0  0
  -21.2073   -4.7858    1.0093 C   0  0  0  0  0  0  0  0  0  0  0  0
  -19.7788   -4.8062    0.7933 C   0  0  0  0  0  0  0  0  0  0  0  0
  -18.9443   -4.0163    1.5979 C   0  0  0  0  0  0  0  0  0  0  0  0
  -17.5902   -4.0232    1.4494 C   0  0  0  0  0  0  0  0  0  0  0  0
  -16.9722   -4.8058    0.5020 C   0  0  0  0  0  0  0  0  0  0  0  0
  -17.7390   -5.5990   -0.3126 C   0  0  0  0  0  0  0  0  0  0  0  0
  -17.2078   -6.4263   -1.3205 N   0  0  0  0  0  0  0  0  0  0  0  0
  -15.8531   -6.5821   -1.6539 C   0  0  0  0  0  0  0  0  0  0  0  0
  -14.9365   -5.9819   -1.0758 O   0  0  0  0  0  0  0  0  0  0  0  0
  -15.4702   -7.5106   -2.7555 C   0  0  0  0  0  0  0  0  0  0  0  0
  -15.7651   -6.9657   -4.0851 C   0  0  0  0  0  0  0  0  0  0  0  0
  -16.7760   -6.0324   -4.2619 C   0  0  0  0  0  0  0  0  0  0  0  0
  -17.0602   -5.5123   -5.5074 C   0  0  0  0  0  0  0  0  0  0  0  0
  -16.3005   -5.9557   -6.5706 C   0  0  0  0  0  0  0  0  0  0  0  0
  -15.2908   -6.8846   -6.4100 C   0  0  0  0  0  0  0  0  0  0  0  0
  -15.0081   -7.4045   -5.1601 C   0  0  0  0  0  0  0  0  0  0  0  0
  -13.9417   -8.3976   -4.9320 C   0  0  0  0  0  0  0  0  0  0  0  0
  -19.1343   -5.5682   -0.1322 C   0  0  0  0  0  0  0  0  0  0  0  0
  -23.1223   -8.1168    1.3519 H   0  0  0  0  0  0  0  0  0  0  0  0
  -21.9930   -8.9727    0.2753 H   0  0  0  0  0  0  0  0  0  0  0  0
  -21.3673   -7.9745    1.6101 H   0  0  0  0  0  0  0  0  0  0  0  0
  -23.0073   -6.9066   -0.6785 H   0  0  0  0  0  0  0  0  0  0  0  0
  -21.2034   -6.9116   -0.6481 H   0  0  0  0  0  0  0  0  0  0  0  0
  -16.9813   -3.3929    2.0975 H   0  0  0  0  0  0  0  0  0  0  0  0
  -15.8870   -4.7957    0.4000 H   0  0  0  0  0  0  0  0  0  0  0  0
  -17.8709   -6.9640   -1.8602 H   0  0  0  0  0  0  0  0  0  0  0  0
  -16.0571   -8.4213   -2.6363 H   0  0  0  0  0  0  0  0  0  0  0  0
  -14.4005   -7.7091   -2.6889 H   0  0  0  0  0  0  0  0  0  0  0  0
  -17.3569   -5.7038   -3.4001 H   0  0  0  0  0  0  0  0  0  0  0  0
  -17.8546   -4.7790   -5.6465 H   0  0  0  0  0  0  0  0  0  0  0  0
  -16.5031   -5.5614   -7.5664 H   0  0  0  0  0  0  0  0  0  0  0  0
  -14.7126   -7.2102   -7.2748 H   0  0  0  0  0  0  0  0  0  0  0  0
  -13.0718   -7.9030   -4.4999 H   0  0  0  0  0  0  0  0  0  0  0  0
  -14.3001   -9.1655   -4.2465 H   0  0  0  0  0  0  0  0  0  0  0  0
  -13.6637   -8.8574   -5.8804 H   0  0  0  0  0  0  0  0  0  0  0  0
  -19.7424   -6.1997   -0.7799 H   0  0  0  0  0  0  0  0  0  0  0  0
  -20.5443   -1.7845    4.2899 N   0  0  0  0  0  0  0  0  0  0  0  0
  -21.2158   -2.7257    3.6153 C   0  0  0  0  0  0  0  0  0  0  0  0
  -20.6913   -3.5243    2.6689 N   0  0  0  0  0  0  0  0  0  0  0  0
  -19.3893   -3.3829    2.3589 C   0  0  0  0  0  0  0  0  0  0  0  0
  -17.2566   -2.2624    2.7068 C   0  0  0  0  0  0  0  0  0  0  0  0
  -16.4931   -1.2981    3.3723 C   0  0  0  0  0  0  0  0  0  0  0  0
  -17.0791   -0.4854    4.3526 C   0  0  0  0  0  0  0  0  0  0  0  0
  -18.4330   -0.6343    4.6733 C   0  0  0  0  0  0  0  0  0  0  0  0
  -19.2174   -1.5973    4.0159 C   0  0  0  0  0  0  0  0  0  0  0  0
  -18.6207   -2.4126    3.0292 C   0  0  0  0  0  0  0  0  0  0  0  0
  -22.2638   -2.8542    3.8504 H   0  0  0  0  0  0  0  0  0  0  0  0
  -16.7930   -2.8824    1.9522 H   0  0  0  0  0  0  0  0  0  0  0  0
  -15.4463   -1.1774    3.1299 H   0  0  0  0  0  0  0  0  0  0  0  0
  -16.4832    0.2584    4.8638 H   0  0  0  0  0  0  0  0  0  0  0  0
  -18.8953   -0.0147    5.4259 H   0  0  0  0  0  0  0  0  0  0  0  0
  1  2  1  0
  2  3  1  0
  3  4  1  0
  4  5  2  0
  5  6  1  0
  6  7  2  0
  7  8  1  0
  8  9  1  0
  9 10  2  0
 10 11  1  0
 11 12  2  0
 12 13  1  0
 13 14  1  0
 14 15  2  0
 14 16  1  0
 16 17  1  0
 17 18  2  0
 18 19  1  0
 19 20  2  0
 20 21  1  0
 21 22  2  0
 22 23  1  0
 12 24  1  0
  3  7  1  0
  8 24  2  0
 17 22  1  0
  1 25  1  0
  1 26  1  0
  1 27  1  0
  2 28  1  0
  2 29  1  0
 10 30  1  0
 11 31  1  0
 13 32  1  0
 16 33  1  0
 16 34  1  0
 18 35  1  0
 19 36  1  0
 20 37  1  0
 21 38  1  0
 23 39  1  0
 23 40  1  0
 23 41  1  0
 24 42  1  0
 43 44  2  0
 44 53  1  0
 44 45  1  0
 45 46  2  0
 46 52  1  0
 47 48  1  0
 47 52  2  0
 47 54  1  0
 48 49  2  0
 48 55  1  0
 49 56  1  0
 49 50  1  0
 50 57  1  0
 43 51  1  0
 50 51  2  0
 51 52  1  0
  9 46  1  0
M  END
>  <CHROM.1>  (60) 
-82.47700389,-160.56280652,0.18469452,74.79529170,-26.30661146,-18.34912369
-5.88734929,-1.34336050,2.37430369,0.07690764,1.19127423

>  <Name>  (60) 
design_0

>  <RI>  (60) 
12445400.000000

>  <Rbt.Current_Directory>  (60) 
/pylon5/mc5pksp/smaltr/gateway_workdirs/PROCESS_93251df5-8da2-4fa9-b874-71853b29d1ad

>  <Rbt.Executable>  (60) 
rbdock ($Id: //depot/dev/client3/rdock/2013.1/src/exe/rbdock.cxx#4 $)

>  <Rbt.Library>  (60) 
libRbt.so (2013.1, Build901 2013/11/27)

>  <Rbt.Parameter_File>  (60) 
/home/smaltr/software/rDock_2013.1_src//data/scripts/dock.prm

>  <Rbt.Receptor>  (60) 
/pylon5/mc5pksp/smaltr/gateway_workdirs/PROCESS_93251df5-8da2-4fa9-b874-71853b29d1ad/output/SnD-Target-Sep02/cavity/pocket_docking.prm

>  <SCORE>  (60) 
-19.693700

>  <SCORE.INTER>  (60) 
-19.878300

>  <SCORE.INTER.CONST>  (60) 
1

>  <SCORE.INTER.POLAR>  (60) 
-1.998350

>  <SCORE.INTER.REPUL>  (60) 
0

>  <SCORE.INTER.ROT>  (60) 
5

>  <SCORE.INTER.VDW>  (60) 
-23.483900

>  <SCORE.INTER.norm>  (60) 
-0.828262

>  <SCORE.INTRA>  (60) 
0.184616

>  <SCORE.INTRA.DIHEDRAL>  (60) 
0.686223

>  <SCORE.INTRA.DIHEDRAL.0>  (60) 
5.116130

>  <SCORE.INTRA.POLAR>  (60) 
0

>  <SCORE.INTRA.POLAR.0>  (60) 
0

>  <SCORE.INTRA.REPUL>  (60) 
0

>  <SCORE.INTRA.REPUL.0>  (60) 
0

>  <SCORE.INTRA.VDW>  (60) 
-0.158495

>  <SCORE.INTRA.VDW.0>  (60) 
-1.233420

>  <SCORE.INTRA.norm>  (60) 
0.007692

>  <SCORE.RESTR>  (60) 
0

>  <SCORE.RESTR.CAVITY>  (60) 
0

>  <SCORE.RESTR.norm>  (60) 
0

>  <SCORE.SYSTEM>  (60) 
0

>  <SCORE.SYSTEM.CONST>  (60) 
0

>  <SCORE.SYSTEM.DIHEDRAL>  (60) 
0

>  <SCORE.SYSTEM.norm>  (60) 
0

>  <SCORE.heavy>  (60) 
24

>  <SCORE.norm>  (60) 
-0.820569

>  <SMILES>  (60) 
CCn1nnnc1-c1cccc(NC(=O)Cc2ccccc2C)c1

>  <Cycle>  (60) 
228

>  <MolWeight>  (60) 
321.384000

>  <LogP>  (60) 
2.849620

>  <QED>  (60) 
0.784063

>  <SAS>  (60) 
2.0551966274651168

$$$$
design_0
     RDKit          3D

 57 61  0  0  0  0  0  0  0  0999 V2000
  -22.1516   -8.0657    0.8587 C   0  0  0  0  0  0  0  0  0  0  0  0
  -22.1155   -6.8694   -0.0529 C   0  0  0  0  0  0  0  0  0  0  0  0
  -22.1406   -5.6324    0.6576 N   0  0  0  0  0  0  0  0  0  0  0  0
  -23.3222   -5.1180    1.0854 N   0  0  0  0  0  0  0  0  0  0  0  0
  -23.1120   -3.9821    1.6836 N   0  0  0  0  0  0  0  0  0  0  0  0
  -21.8288   -3.7428    1.6576 N   0  0  0  0  0  0  0  0  0  0  0  0
  -21.2073   -4.7858    1.0093 C   0  0  0  0  0  0  0  0  0  0  0  0
  -19.7788   -4.8062    0.7933 C   0  0  0  0  0  0  0  0  0  0  0  0
  -18.9443   -4.0163    1.5979 C   0  0  0  0  0  0  0  0  0  0  0  0
  -17.5902   -4.0232    1.4494 C   0  0  0  0  0  0  0  0  0  0  0  0
  -16.9722   -4.8058    0.5020 C   0  0  0  0  0  0  0  0  0  0  0  0
  -17.7390   -5.5990   -0.3126 C   0  0  0  0  0  0  0  0  0  0  0  0
  -17.2078   -6.4263   -1.3205 N   0  0  0  0  0  0  0  0  0  0  0  0
  -15.8531   -6.5821   -1.6539 C   0  0  0  0  0  0  0  0  0  0  0  0
  -14.9365   -5.9819   -1.0758 O   0  0  0  0  0  0  0  0  0  0  0  0
  -15.4702   -7.5106   -2.7555 C   0  0  0  0  0  0  0  0  0  0  0  0
  -15.7651   -6.9657   -4.0851 C   0  0  0  0  0  0  0  0  0  0  0  0
  -16.7760   -6.0324   -4.2619 C   0  0  0  0  0  0  0  0  0  0  0  0
  -17.0602   -5.5123   -5.5074 C   0  0  0  0  0  0  0  0  0  0  0  0
  -16.3005   -5.9557   -6.5706 C   0  0  0  0  0  0  0  0  0  0  0  0
  -15.2908   -6.8846   -6.4100 C   0  0  0  0  0  0  0  0  0  0  0  0
  -15.0081   -7.4045   -5.1601 C   0  0  0  0  0  0  0  0  0  0  0  0
  -13.9417   -8.3976   -4.9320 C   0  0  0  0  0  0  0  0  0  0  0  0
  -19.1343   -5.5682   -0.1322 C   0  0  0  0  0  0  0  0  0  0  0  0
  -23.1223   -8.1168    1.3519 H   0  0  0  0  0  0  0  0  0  0  0  0
  -21.9930   -8.9727    0.2753 H   0  0  0  0  0  0  0  0  0  0  0  0
  -21.3673   -7.9745    1.6101 H   0  0  0  0  0  0  0  0  0  0  0  0
  -23.0073   -6.9066   -0.6785 H   0  0  0  0  0  0  0  0  0  0  0  0
  -21.2034   -6.9116   -0.6481 H   0  0  0  0  0  0  0  0  0  0  0  0
  -19.3911   -3.3803    2.3620 H   0  0  0  0  0  0  0  0  0  0  0  0
  -16.9813   -3.3929    2.0975 H   0  0  0  0  0  0  0  0  0  0  0  0
  -17.8709   -6.9640   -1.8602 H   0  0  0  0  0  0  0  0  0  0  0  0
  -16.0571   -8.4213   -2.6363 H   0  0  0  0  0  0  0  0  0  0  0  0
  -14.4005   -7.7091   -2.6889 H   0  0  0  0  0  0  0  0  0  0  0  0
  -17.3569   -5.7038   -3.4001 H   0  0  0  0  0  0  0  0  0  0  0  0
  -17.8546   -4.7790   -5.6465 H   0  0  0  0  0  0  0  0  0  0  0  0
  -16.5031   -5.5614   -7.5664 H   0  0  0  0  0  0  0  0  0  0  0  0
  -14.7126   -7.2102   -7.2748 H   0  0  0  0  0  0  0  0  0  0  0  0
  -13.0718   -7.9030   -4.4999 H   0  0  0  0  0  0  0  0  0  0  0  0
  -14.3001   -9.1655   -4.2465 H   0  0  0  0  0  0  0  0  0  0  0  0
  -13.6637   -8.8574   -5.8804 H   0  0  0  0  0  0  0  0  0  0  0  0
  -19.7424   -6.1997   -0.7799 H   0  0  0  0  0  0  0  0  0  0  0  0
  -16.0597   -3.2501   -1.4731 N   0  0  0  0  0  0  0  0  0  0  0  0
  -15.4276   -2.5282   -2.4065 C   0  0  0  0  0  0  0  0  0  0  0  0
  -14.0945   -2.4781   -2.5769 N   0  0  0  0  0  0  0  0  0  0  0  0
  -13.3144   -3.2034   -1.7544 C   0  0  0  0  0  0  0  0  0  0  0  0
  -13.0966   -4.7485    0.1139 C   0  0  0  0  0  0  0  0  0  0  0  0
  -13.6893   -5.5270    1.1130 C   0  0  0  0  0  0  0  0  0  0  0  0
  -15.0834   -5.5506    1.2570 C   0  0  0  0  0  0  0  0  0  0  0  0
  -15.8925   -4.7958    0.4005 C   0  0  0  0  0  0  0  0  0  0  0  0
  -15.3164   -4.0068   -0.6096 C   0  0  0  0  0  0  0  0  0  0  0  0
  -13.9112   -3.9875   -0.7490 C   0  0  0  0  0  0  0  0  0  0  0  0
  -16.0378   -1.9383   -3.0772 H   0  0  0  0  0  0  0  0  0  0  0  0
  -12.2402   -3.1784   -1.8725 H   0  0  0  0  0  0  0  0  0  0  0  0
  -12.0201   -4.7382    0.0137 H   0  0  0  0  0  0  0  0  0  0  0  0
  -13.0706   -6.1130    1.7784 H   0  0  0  0  0  0  0  0  0  0  0  0
  -15.5358   -6.1549    2.0316 H   0  0  0  0  0  0  0  0  0  0  0  0
  1  2  1  0
  2  3  1  0
  3  4  1  0
  4  5  2  0
  5  6  1  0
  6  7  2  0
  7  8  1  0
  8  9  2  0
  9 10  1  0
 10 11  2  0
 11 12  1  0
 12 13  1  0
 13 14  1  0
 14 15  2  0
 14 16  1  0
 16 17  1  0
 17 18  2  0
 18 19  1  0
 19 20  2  0
 20 21  1  0
 21 22  2  0
 22 23  1  0
 12 24  2  0
  3  7  1  0
  8 24  1  0
 17 22  1  0
  1 25  1  0
  1 26  1  0
  1 27  1  0
  2 28  1  0
  2 29  1  0
  9 30  1  0
 10 31  1  0
 13 32  1  0
 16 33  1  0
 16 34  1  0
 18 35  1  0
 19 36  1  0
 20 37  1  0
 21 38  1  0
 23 39  1  0
 23 40  1  0
 23 41  1  0
 24 42  1  0
 43 44  2  0
 44 53  1  0
 44 45  1  0
 45 46  2  0
 46 52  1  0
 46 54  1  0
 47 48  1  0
 47 52  2  0
 47 55  1  0
 48 49  2  0
 48 56  1  0
 49 57  1  0
 49 50  1  0
 43 51  1  0
 50 51  2  0
 51 52  1  0
 11 50  1  0
M  END
>  <CHROM.1>  (61) 
-82.47700389,-160.56280652,0.18469452,74.79529170,-26.30661146,-18.34912369
-5.88734929,-1.34336050,2.37430369,0.07690764,1.19127423

>  <Name>  (61) 
design_0

>  <RI>  (61) 
12445400.000000

>  <Rbt.Current_Directory>  (61) 
/pylon5/mc5pksp/smaltr/gateway_workdirs/PROCESS_93251df5-8da2-4fa9-b874-71853b29d1ad

>  <Rbt.Executable>  (61) 
rbdock ($Id: //depot/dev/client3/rdock/2013.1/src/exe/rbdock.cxx#4 $)

>  <Rbt.Library>  (61) 
libRbt.so (2013.1, Build901 2013/11/27)

>  <Rbt.Parameter_File>  (61) 
/home/smaltr/software/rDock_2013.1_src//data/scripts/dock.prm

>  <Rbt.Receptor>  (61) 
/pylon5/mc5pksp/smaltr/gateway_workdirs/PROCESS_93251df5-8da2-4fa9-b874-71853b29d1ad/output/SnD-Target-Sep02/cavity/pocket_docking.prm

>  <SCORE>  (61) 
-19.693700

>  <SCORE.INTER>  (61) 
-19.878300

>  <SCORE.INTER.CONST>  (61) 
1

>  <SCORE.INTER.POLAR>  (61) 
-1.998350

>  <SCORE.INTER.REPUL>  (61) 
0

>  <SCORE.INTER.ROT>  (61) 
5

>  <SCORE.INTER.VDW>  (61) 
-23.483900

>  <SCORE.INTER.norm>  (61) 
-0.828262

>  <SCORE.INTRA>  (61) 
0.184616

>  <SCORE.INTRA.DIHEDRAL>  (61) 
0.686223

>  <SCORE.INTRA.DIHEDRAL.0>  (61) 
5.116130

>  <SCORE.INTRA.POLAR>  (61) 
0

>  <SCORE.INTRA.POLAR.0>  (61) 
0

>  <SCORE.INTRA.REPUL>  (61) 
0

>  <SCORE.INTRA.REPUL.0>  (61) 
0

>  <SCORE.INTRA.VDW>  (61) 
-0.158495

>  <SCORE.INTRA.VDW.0>  (61) 
-1.233420

>  <SCORE.INTRA.norm>  (61) 
0.007692

>  <SCORE.RESTR>  (61) 
0

>  <SCORE.RESTR.CAVITY>  (61) 
0

>  <SCORE.RESTR.norm>  (61) 
0

>  <SCORE.SYSTEM>  (61) 
0

>  <SCORE.SYSTEM.CONST>  (61) 
0

>  <SCORE.SYSTEM.DIHEDRAL>  (61) 
0

>  <SCORE.SYSTEM.norm>  (61) 
0

>  <SCORE.heavy>  (61) 
24

>  <SCORE.norm>  (61) 
-0.820569

>  <SMILES>  (61) 
CCn1nnnc1-c1cccc(NC(=O)Cc2ccccc2C)c1

>  <Cycle>  (61) 
228

>  <MolWeight>  (61) 
321.384000

>  <LogP>  (61) 
2.849620

>  <QED>  (61) 
0.784063

>  <SAS>  (61) 
2.0129644686844372

$$$$
design_0
     RDKit          3D

 57 61  0  0  0  0  0  0  0  0999 V2000
  -22.1516   -8.0657    0.8587 C   0  0  0  0  0  0  0  0  0  0  0  0
  -22.1155   -6.8694   -0.0529 C   0  0  0  0  0  0  0  0  0  0  0  0
  -22.1406   -5.6324    0.6576 N   0  0  0  0  0  0  0  0  0  0  0  0
  -23.3222   -5.1180    1.0854 N   0  0  0  0  0  0  0  0  0  0  0  0
  -23.1120   -3.9821    1.6836 N   0  0  0  0  0  0  0  0  0  0  0  0
  -21.8288   -3.7428    1.6576 N   0  0  0  0  0  0  0  0  0  0  0  0
  -21.2073   -4.7858    1.0093 C   0  0  0  0  0  0  0  0  0  0  0  0
  -19.7788   -4.8062    0.7933 C   0  0  0  0  0  0  0  0  0  0  0  0
  -18.9443   -4.0163    1.5979 C   0  0  0  0  0  0  0  0  0  0  0  0
  -17.5902   -4.0232    1.4494 C   0  0  0  0  0  0  0  0  0  0  0  0
  -16.9722   -4.8058    0.5020 C   0  0  0  0  0  0  0  0  0  0  0  0
  -17.7390   -5.5990   -0.3126 C   0  0  0  0  0  0  0  0  0  0  0  0
  -17.2078   -6.4263   -1.3205 N   0  0  0  0  0  0  0  0  0  0  0  0
  -15.8531   -6.5821   -1.6539 C   0  0  0  0  0  0  0  0  0  0  0  0
  -14.9365   -5.9819   -1.0758 O   0  0  0  0  0  0  0  0  0  0  0  0
  -15.4702   -7.5106   -2.7555 C   0  0  0  0  0  0  0  0  0  0  0  0
  -15.7651   -6.9657   -4.0851 C   0  0  0  0  0  0  0  0  0  0  0  0
  -16.7760   -6.0324   -4.2619 C   0  0  0  0  0  0  0  0  0  0  0  0
  -17.0602   -5.5123   -5.5074 C   0  0  0  0  0  0  0  0  0  0  0  0
  -16.3005   -5.9557   -6.5706 C   0  0  0  0  0  0  0  0  0  0  0  0
  -15.2908   -6.8846   -6.4100 C   0  0  0  0  0  0  0  0  0  0  0  0
  -15.0081   -7.4045   -5.1601 C   0  0  0  0  0  0  0  0  0  0  0  0
  -13.9417   -8.3976   -4.9320 C   0  0  0  0  0  0  0  0  0  0  0  0
  -19.1343   -5.5682   -0.1322 C   0  0  0  0  0  0  0  0  0  0  0  0
  -23.1223   -8.1168    1.3519 H   0  0  0  0  0  0  0  0  0  0  0  0
  -21.9930   -8.9727    0.2753 H   0  0  0  0  0  0  0  0  0  0  0  0
  -21.3673   -7.9745    1.6101 H   0  0  0  0  0  0  0  0  0  0  0  0
  -23.0073   -6.9066   -0.6785 H   0  0  0  0  0  0  0  0  0  0  0  0
  -21.2034   -6.9116   -0.6481 H   0  0  0  0  0  0  0  0  0  0  0  0
  -19.3911   -3.3803    2.3620 H   0  0  0  0  0  0  0  0  0  0  0  0
  -16.9813   -3.3929    2.0975 H   0  0  0  0  0  0  0  0  0  0  0  0
  -17.8709   -6.9640   -1.8602 H   0  0  0  0  0  0  0  0  0  0  0  0
  -16.0571   -8.4213   -2.6363 H   0  0  0  0  0  0  0  0  0  0  0  0
  -14.4005   -7.7091   -2.6889 H   0  0  0  0  0  0  0  0  0  0  0  0
  -17.3569   -5.7038   -3.4001 H   0  0  0  0  0  0  0  0  0  0  0  0
  -17.8546   -4.7790   -5.6465 H   0  0  0  0  0  0  0  0  0  0  0  0
  -16.5031   -5.5614   -7.5664 H   0  0  0  0  0  0  0  0  0  0  0  0
  -14.7126   -7.2102   -7.2748 H   0  0  0  0  0  0  0  0  0  0  0  0
  -13.0718   -7.9030   -4.4999 H   0  0  0  0  0  0  0  0  0  0  0  0
  -14.3001   -9.1655   -4.2465 H   0  0  0  0  0  0  0  0  0  0  0  0
  -13.6637   -8.8574   -5.8804 H   0  0  0  0  0  0  0  0  0  0  0  0
  -19.7424   -6.1997   -0.7799 H   0  0  0  0  0  0  0  0  0  0  0  0
  -13.1463   -4.7701    0.1155 N   0  0  0  0  0  0  0  0  0  0  0  0
  -13.9939   -4.7637   -0.9206 C   0  0  0  0  0  0  0  0  0  0  0  0
  -15.3353   -4.7755   -0.8250 N   0  0  0  0  0  0  0  0  0  0  0  0
  -15.8915   -4.7957    0.4004 C   0  0  0  0  0  0  0  0  0  0  0  0
  -15.6401   -4.8238    2.8214 C   0  0  0  0  0  0  0  0  0  0  0  0
  -14.8145   -4.8314    3.9501 C   0  0  0  0  0  0  0  0  0  0  0  0
  -13.4202   -4.8192    3.8062 C   0  0  0  0  0  0  0  0  0  0  0  0
  -12.8442   -4.7980    2.5311 C   0  0  0  0  0  0  0  0  0  0  0  0
  -13.6564   -4.7903    1.3844 C   0  0  0  0  0  0  0  0  0  0  0  0
  -15.0604   -4.8028    1.5366 C   0  0  0  0  0  0  0  0  0  0  0  0
  -13.5657   -4.7476   -1.9138 H   0  0  0  0  0  0  0  0  0  0  0  0
  -16.7140   -4.8342    2.9458 H   0  0  0  0  0  0  0  0  0  0  0  0
  -15.2524   -4.8476    4.9385 H   0  0  0  0  0  0  0  0  0  0  0  0
  -12.7871   -4.8249    4.6831 H   0  0  0  0  0  0  0  0  0  0  0  0
  -11.7724   -4.7884    2.4076 H   0  0  0  0  0  0  0  0  0  0  0  0
  1  2  1  0
  2  3  1  0
  3  4  1  0
  4  5  2  0
  5  6  1  0
  6  7  2  0
  7  8  1  0
  8  9  2  0
  9 10  1  0
 10 11  2  0
 11 12  1  0
 12 13  1  0
 13 14  1  0
 14 15  2  0
 14 16  1  0
 16 17  1  0
 17 18  2  0
 18 19  1  0
 19 20  2  0
 20 21  1  0
 21 22  2  0
 22 23  1  0
 12 24  2  0
  3  7  1  0
  8 24  1  0
 17 22  1  0
  1 25  1  0
  1 26  1  0
  1 27  1  0
  2 28  1  0
  2 29  1  0
  9 30  1  0
 10 31  1  0
 13 32  1  0
 16 33  1  0
 16 34  1  0
 18 35  1  0
 19 36  1  0
 20 37  1  0
 21 38  1  0
 23 39  1  0
 23 40  1  0
 23 41  1  0
 24 42  1  0
 43 44  2  0
 44 53  1  0
 44 45  1  0
 45 46  2  0
 46 52  1  0
 47 48  1  0
 47 52  2  0
 47 54  1  0
 48 49  2  0
 48 55  1  0
 49 56  1  0
 49 50  1  0
 50 57  1  0
 43 51  1  0
 50 51  2  0
 51 52  1  0
 11 46  1  0
M  END
>  <CHROM.1>  (62) 
-82.47700389,-160.56280652,0.18469452,74.79529170,-26.30661146,-18.34912369
-5.88734929,-1.34336050,2.37430369,0.07690764,1.19127423

>  <Name>  (62) 
design_0

>  <RI>  (62) 
12445400.000000

>  <Rbt.Current_Directory>  (62) 
/pylon5/mc5pksp/smaltr/gateway_workdirs/PROCESS_93251df5-8da2-4fa9-b874-71853b29d1ad

>  <Rbt.Executable>  (62) 
rbdock ($Id: //depot/dev/client3/rdock/2013.1/src/exe/rbdock.cxx#4 $)

>  <Rbt.Library>  (62) 
libRbt.so (2013.1, Build901 2013/11/27)

>  <Rbt.Parameter_File>  (62) 
/home/smaltr/software/rDock_2013.1_src//data/scripts/dock.prm

>  <Rbt.Receptor>  (62) 
/pylon5/mc5pksp/smaltr/gateway_workdirs/PROCESS_93251df5-8da2-4fa9-b874-71853b29d1ad/output/SnD-Target-Sep02/cavity/pocket_docking.prm

>  <SCORE>  (62) 
-19.693700

>  <SCORE.INTER>  (62) 
-19.878300

>  <SCORE.INTER.CONST>  (62) 
1

>  <SCORE.INTER.POLAR>  (62) 
-1.998350

>  <SCORE.INTER.REPUL>  (62) 
0

>  <SCORE.INTER.ROT>  (62) 
5

>  <SCORE.INTER.VDW>  (62) 
-23.483900

>  <SCORE.INTER.norm>  (62) 
-0.828262

>  <SCORE.INTRA>  (62) 
0.184616

>  <SCORE.INTRA.DIHEDRAL>  (62) 
0.686223

>  <SCORE.INTRA.DIHEDRAL.0>  (62) 
5.116130

>  <SCORE.INTRA.POLAR>  (62) 
0

>  <SCORE.INTRA.POLAR.0>  (62) 
0

>  <SCORE.INTRA.REPUL>  (62) 
0

>  <SCORE.INTRA.REPUL.0>  (62) 
0

>  <SCORE.INTRA.VDW>  (62) 
-0.158495

>  <SCORE.INTRA.VDW.0>  (62) 
-1.233420

>  <SCORE.INTRA.norm>  (62) 
0.007692

>  <SCORE.RESTR>  (62) 
0

>  <SCORE.RESTR.CAVITY>  (62) 
0

>  <SCORE.RESTR.norm>  (62) 
0

>  <SCORE.SYSTEM>  (62) 
0

>  <SCORE.SYSTEM.CONST>  (62) 
0

>  <SCORE.SYSTEM.DIHEDRAL>  (62) 
0

>  <SCORE.SYSTEM.norm>  (62) 
0

>  <SCORE.heavy>  (62) 
24

>  <SCORE.norm>  (62) 
-0.820569

>  <SMILES>  (62) 
CCn1nnnc1-c1cccc(NC(=O)Cc2ccccc2C)c1

>  <Cycle>  (62) 
228

>  <MolWeight>  (62) 
321.384000

>  <LogP>  (62) 
2.849620

>  <QED>  (62) 
0.784063

>  <SAS>  (62) 
2.0551966274651168

$$$$
design_0
     RDKit          3D

 57 61  0  0  0  0  0  0  0  0999 V2000
  -22.1516   -8.0657    0.8587 C   0  0  0  0  0  0  0  0  0  0  0  0
  -22.1155   -6.8694   -0.0529 C   0  0  0  0  0  0  0  0  0  0  0  0
  -22.1406   -5.6324    0.6576 N   0  0  0  0  0  0  0  0  0  0  0  0
  -23.3222   -5.1180    1.0854 N   0  0  0  0  0  0  0  0  0  0  0  0
  -23.1120   -3.9821    1.6836 N   0  0  0  0  0  0  0  0  0  0  0  0
  -21.8288   -3.7428    1.6576 N   0  0  0  0  0  0  0  0  0  0  0  0
  -21.2073   -4.7858    1.0093 C   0  0  0  0  0  0  0  0  0  0  0  0
  -19.7788   -4.8062    0.7933 C   0  0  0  0  0  0  0  0  0  0  0  0
  -18.9443   -4.0163    1.5979 C   0  0  0  0  0  0  0  0  0  0  0  0
  -17.5902   -4.0232    1.4494 C   0  0  0  0  0  0  0  0  0  0  0  0
  -16.9722   -4.8058    0.5020 C   0  0  0  0  0  0  0  0  0  0  0  0
  -17.7390   -5.5990   -0.3126 C   0  0  0  0  0  0  0  0  0  0  0  0
  -17.2078   -6.4263   -1.3205 N   0  0  0  0  0  0  0  0  0  0  0  0
  -15.8531   -6.5821   -1.6539 C   0  0  0  0  0  0  0  0  0  0  0  0
  -14.9365   -5.9819   -1.0758 O   0  0  0  0  0  0  0  0  0  0  0  0
  -15.4702   -7.5106   -2.7555 C   0  0  0  0  0  0  0  0  0  0  0  0
  -15.7651   -6.9657   -4.0851 C   0  0  0  0  0  0  0  0  0  0  0  0
  -16.7760   -6.0324   -4.2619 C   0  0  0  0  0  0  0  0  0  0  0  0
  -17.0602   -5.5123   -5.5074 C   0  0  0  0  0  0  0  0  0  0  0  0
  -16.3005   -5.9557   -6.5706 C   0  0  0  0  0  0  0  0  0  0  0  0
  -15.2908   -6.8846   -6.4100 C   0  0  0  0  0  0  0  0  0  0  0  0
  -15.0081   -7.4045   -5.1601 C   0  0  0  0  0  0  0  0  0  0  0  0
  -13.9417   -8.3976   -4.9320 C   0  0  0  0  0  0  0  0  0  0  0  0
  -19.1343   -5.5682   -0.1322 C   0  0  0  0  0  0  0  0  0  0  0  0
  -23.1223   -8.1168    1.3519 H   0  0  0  0  0  0  0  0  0  0  0  0
  -21.9930   -8.9727    0.2753 H   0  0  0  0  0  0  0  0  0  0  0  0
  -21.3673   -7.9745    1.6101 H   0  0  0  0  0  0  0  0  0  0  0  0
  -23.0073   -6.9066   -0.6785 H   0  0  0  0  0  0  0  0  0  0  0  0
  -21.2034   -6.9116   -0.6481 H   0  0  0  0  0  0  0  0  0  0  0  0
  -19.3911   -3.3803    2.3620 H   0  0  0  0  0  0  0  0  0  0  0  0
  -16.9813   -3.3929    2.0975 H   0  0  0  0  0  0  0  0  0  0  0  0
  -15.8870   -4.7957    0.4000 H   0  0  0  0  0  0  0  0  0  0  0  0
  -17.8709   -6.9640   -1.8602 H   0  0  0  0  0  0  0  0  0  0  0  0
  -16.0571   -8.4213   -2.6363 H   0  0  0  0  0  0  0  0  0  0  0  0
  -14.4005   -7.7091   -2.6889 H   0  0  0  0  0  0  0  0  0  0  0  0
  -17.3569   -5.7038   -3.4001 H   0  0  0  0  0  0  0  0  0  0  0  0
  -17.8546   -4.7790   -5.6465 H   0  0  0  0  0  0  0  0  0  0  0  0
  -16.5031   -5.5614   -7.5664 H   0  0  0  0  0  0  0  0  0  0  0  0
  -14.7126   -7.2102   -7.2748 H   0  0  0  0  0  0  0  0  0  0  0  0
  -13.0718   -7.9030   -4.4999 H   0  0  0  0  0  0  0  0  0  0  0  0
  -14.3001   -9.1655   -4.2465 H   0  0  0  0  0  0  0  0  0  0  0  0
  -13.6637   -8.8574   -5.8804 H   0  0  0  0  0  0  0  0  0  0  0  0
  -18.3394   -5.6269   -2.6854 N   0  0  0  0  0  0  0  0  0  0  0  0
  -18.0892   -5.7763   -3.9919 C   0  0  0  0  0  0  0  0  0  0  0  0
  -18.8044   -6.5411   -4.8358 N   0  0  0  0  0  0  0  0  0  0  0  0
  -19.8601   -7.2196   -4.3494 C   0  0  0  0  0  0  0  0  0  0  0  0
  -21.2882   -7.8184   -2.4713 C   0  0  0  0  0  0  0  0  0  0  0  0
  -21.6086   -7.7091   -1.1145 C   0  0  0  0  0  0  0  0  0  0  0  0
  -20.8363   -6.9011   -0.2686 C   0  0  0  0  0  0  0  0  0  0  0  0
  -19.7393   -6.1965   -0.7766 C   0  0  0  0  0  0  0  0  0  0  0  0
  -19.4007   -6.2931   -2.1370 C   0  0  0  0  0  0  0  0  0  0  0  0
  -20.1829   -7.1091   -2.9836 C   0  0  0  0  0  0  0  0  0  0  0  0
  -17.2444   -5.2390   -4.4014 H   0  0  0  0  0  0  0  0  0  0  0  0
  -20.4494   -7.8409   -5.0091 H   0  0  0  0  0  0  0  0  0  0  0  0
  -21.8912   -8.4455   -3.1131 H   0  0  0  0  0  0  0  0  0  0  0  0
  -22.4549   -8.2505   -0.7149 H   0  0  0  0  0  0  0  0  0  0  0  0
  -21.0895   -6.8206    0.7798 H   0  0  0  0  0  0  0  0  0  0  0  0
  1  2  1  0
  2  3  1  0
  3  4  1  0
  4  5  2  0
  5  6  1  0
  6  7  2  0
  7  8  1  0
  8  9  2  0
  9 10  1  0
 10 11  2  0
 11 12  1  0
 12 13  1  0
 13 14  1  0
 14 15  2  0
 14 16  1  0
 16 17  1  0
 17 18  2  0
 18 19  1  0
 19 20  2  0
 20 21  1  0
 21 22  2  0
 22 23  1  0
 12 24  2  0
  3  7  1  0
  8 24  1  0
 17 22  1  0
  1 25  1  0
  1 26  1  0
  1 27  1  0
  2 28  1  0
  2 29  1  0
  9 30  1  0
 10 31  1  0
 11 32  1  0
 13 33  1  0
 16 34  1  0
 16 35  1  0
 18 36  1  0
 19 37  1  0
 20 38  1  0
 21 39  1  0
 23 40  1  0
 23 41  1  0
 23 42  1  0
 43 44  2  0
 44 53  1  0
 44 45  1  0
 45 46  2  0
 46 52  1  0
 46 54  1  0
 47 48  1  0
 47 52  2  0
 47 55  1  0
 48 49  2  0
 48 56  1  0
 49 57  1  0
 49 50  1  0
 43 51  1  0
 50 51  2  0
 51 52  1  0
 24 50  1  0
M  END
>  <CHROM.1>  (63) 
-82.47700389,-160.56280652,0.18469452,74.79529170,-26.30661146,-18.34912369
-5.88734929,-1.34336050,2.37430369,0.07690764,1.19127423

>  <Name>  (63) 
design_0

>  <RI>  (63) 
12445400.000000

>  <Rbt.Current_Directory>  (63) 
/pylon5/mc5pksp/smaltr/gateway_workdirs/PROCESS_93251df5-8da2-4fa9-b874-71853b29d1ad

>  <Rbt.Executable>  (63) 
rbdock ($Id: //depot/dev/client3/rdock/2013.1/src/exe/rbdock.cxx#4 $)

>  <Rbt.Library>  (63) 
libRbt.so (2013.1, Build901 2013/11/27)

>  <Rbt.Parameter_File>  (63) 
/home/smaltr/software/rDock_2013.1_src//data/scripts/dock.prm

>  <Rbt.Receptor>  (63) 
/pylon5/mc5pksp/smaltr/gateway_workdirs/PROCESS_93251df5-8da2-4fa9-b874-71853b29d1ad/output/SnD-Target-Sep02/cavity/pocket_docking.prm

>  <SCORE>  (63) 
-19.693700

>  <SCORE.INTER>  (63) 
-19.878300

>  <SCORE.INTER.CONST>  (63) 
1

>  <SCORE.INTER.POLAR>  (63) 
-1.998350

>  <SCORE.INTER.REPUL>  (63) 
0

>  <SCORE.INTER.ROT>  (63) 
5

>  <SCORE.INTER.VDW>  (63) 
-23.483900

>  <SCORE.INTER.norm>  (63) 
-0.828262

>  <SCORE.INTRA>  (63) 
0.184616

>  <SCORE.INTRA.DIHEDRAL>  (63) 
0.686223

>  <SCORE.INTRA.DIHEDRAL.0>  (63) 
5.116130

>  <SCORE.INTRA.POLAR>  (63) 
0

>  <SCORE.INTRA.POLAR.0>  (63) 
0

>  <SCORE.INTRA.REPUL>  (63) 
0

>  <SCORE.INTRA.REPUL.0>  (63) 
0

>  <SCORE.INTRA.VDW>  (63) 
-0.158495

>  <SCORE.INTRA.VDW.0>  (63) 
-1.233420

>  <SCORE.INTRA.norm>  (63) 
0.007692

>  <SCORE.RESTR>  (63) 
0

>  <SCORE.RESTR.CAVITY>  (63) 
0

>  <SCORE.RESTR.norm>  (63) 
0

>  <SCORE.SYSTEM>  (63) 
0

>  <SCORE.SYSTEM.CONST>  (63) 
0

>  <SCORE.SYSTEM.DIHEDRAL>  (63) 
0

>  <SCORE.SYSTEM.norm>  (63) 
0

>  <SCORE.heavy>  (63) 
24

>  <SCORE.norm>  (63) 
-0.820569

>  <SMILES>  (63) 
CCn1nnnc1-c1cccc(NC(=O)Cc2ccccc2C)c1

>  <Cycle>  (63) 
228

>  <MolWeight>  (63) 
321.384000

>  <LogP>  (63) 
2.849620

>  <QED>  (63) 
0.784063

>  <SAS>  (63) 
2.0129644686844372

$$$$
design_0
     RDKit          3D

 57 61  0  0  0  0  0  0  0  0999 V2000
  -22.1516   -8.0657    0.8587 C   0  0  0  0  0  0  0  0  0  0  0  0
  -22.1155   -6.8694   -0.0529 C   0  0  0  0  0  0  0  0  0  0  0  0
  -22.1406   -5.6324    0.6576 N   0  0  0  0  0  0  0  0  0  0  0  0
  -23.3222   -5.1180    1.0854 N   0  0  0  0  0  0  0  0  0  0  0  0
  -23.1120   -3.9821    1.6836 N   0  0  0  0  0  0  0  0  0  0  0  0
  -21.8288   -3.7428    1.6576 N   0  0  0  0  0  0  0  0  0  0  0  0
  -21.2073   -4.7858    1.0093 C   0  0  0  0  0  0  0  0  0  0  0  0
  -19.7788   -4.8062    0.7933 C   0  0  0  0  0  0  0  0  0  0  0  0
  -18.9443   -4.0163    1.5979 C   0  0  0  0  0  0  0  0  0  0  0  0
  -17.5902   -4.0232    1.4494 C   0  0  0  0  0  0  0  0  0  0  0  0
  -16.9722   -4.8058    0.5020 C   0  0  0  0  0  0  0  0  0  0  0  0
  -17.7390   -5.5990   -0.3126 C   0  0  0  0  0  0  0  0  0  0  0  0
  -17.2078   -6.4263   -1.3205 N   0  0  0  0  0  0  0  0  0  0  0  0
  -15.8531   -6.5821   -1.6539 C   0  0  0  0  0  0  0  0  0  0  0  0
  -14.9365   -5.9819   -1.0758 O   0  0  0  0  0  0  0  0  0  0  0  0
  -15.4702   -7.5106   -2.7555 C   0  0  0  0  0  0  0  0  0  0  0  0
  -15.7651   -6.9657   -4.0851 C   0  0  0  0  0  0  0  0  0  0  0  0
  -16.7760   -6.0324   -4.2619 C   0  0  0  0  0  0  0  0  0  0  0  0
  -17.0602   -5.5123   -5.5074 C   0  0  0  0  0  0  0  0  0  0  0  0
  -16.3005   -5.9557   -6.5706 C   0  0  0  0  0  0  0  0  0  0  0  0
  -15.2908   -6.8846   -6.4100 C   0  0  0  0  0  0  0  0  0  0  0  0
  -15.0081   -7.4045   -5.1601 C   0  0  0  0  0  0  0  0  0  0  0  0
  -13.9417   -8.3976   -4.9320 C   0  0  0  0  0  0  0  0  0  0  0  0
  -19.1343   -5.5682   -0.1322 C   0  0  0  0  0  0  0  0  0  0  0  0
  -23.1223   -8.1168    1.3519 H   0  0  0  0  0  0  0  0  0  0  0  0
  -21.9930   -8.9727    0.2753 H   0  0  0  0  0  0  0  0  0  0  0  0
  -21.3673   -7.9745    1.6101 H   0  0  0  0  0  0  0  0  0  0  0  0
  -23.0073   -6.9066   -0.6785 H   0  0  0  0  0  0  0  0  0  0  0  0
  -21.2034   -6.9116   -0.6481 H   0  0  0  0  0  0  0  0  0  0  0  0
  -19.3911   -3.3803    2.3620 H   0  0  0  0  0  0  0  0  0  0  0  0
  -16.9813   -3.3929    2.0975 H   0  0  0  0  0  0  0  0  0  0  0  0
  -15.8870   -4.7957    0.4000 H   0  0  0  0  0  0  0  0  0  0  0  0
  -17.8709   -6.9640   -1.8602 H   0  0  0  0  0  0  0  0  0  0  0  0
  -16.0571   -8.4213   -2.6363 H   0  0  0  0  0  0  0  0  0  0  0  0
  -14.4005   -7.7091   -2.6889 H   0  0  0  0  0  0  0  0  0  0  0  0
  -17.3569   -5.7038   -3.4001 H   0  0  0  0  0  0  0  0  0  0  0  0
  -17.8546   -4.7790   -5.6465 H   0  0  0  0  0  0  0  0  0  0  0  0
  -16.5031   -5.5614   -7.5664 H   0  0  0  0  0  0  0  0  0  0  0  0
  -14.7126   -7.2102   -7.2748 H   0  0  0  0  0  0  0  0  0  0  0  0
  -13.0718   -7.9030   -4.4999 H   0  0  0  0  0  0  0  0  0  0  0  0
  -14.3001   -9.1655   -4.2465 H   0  0  0  0  0  0  0  0  0  0  0  0
  -13.6637   -8.8574   -5.8804 H   0  0  0  0  0  0  0  0  0  0  0  0
  -21.3019   -7.7853   -2.4069 N   0  0  0  0  0  0  0  0  0  0  0  0
  -21.8068   -6.8981   -1.5409 C   0  0  0  0  0  0  0  0  0  0  0  0
  -21.0819   -6.1065   -0.7307 N   0  0  0  0  0  0  0  0  0  0  0  0
  -19.7399   -6.1971   -0.7772 C   0  0  0  0  0  0  0  0  0  0  0  0
  -17.7337   -7.2058   -1.7168 C   0  0  0  0  0  0  0  0  0  0  0  0
  -17.1369   -8.1120   -2.5990 C   0  0  0  0  0  0  0  0  0  0  0  0
  -17.9295   -8.9195   -3.4264 C   0  0  0  0  0  0  0  0  0  0  0  0
  -19.3246   -8.8235   -3.3763 C   0  0  0  0  0  0  0  0  0  0  0  0
  -19.9437   -7.9193   -2.4966 C   0  0  0  0  0  0  0  0  0  0  0  0
  -19.1392   -7.1089   -1.6657 C   0  0  0  0  0  0  0  0  0  0  0  0
  -22.8837   -6.8110   -1.4889 H   0  0  0  0  0  0  0  0  0  0  0  0
  -17.1113   -6.5892   -1.0833 H   0  0  0  0  0  0  0  0  0  0  0  0
  -16.0595   -8.1916   -2.6433 H   0  0  0  0  0  0  0  0  0  0  0  0
  -17.4618   -9.6182   -4.1066 H   0  0  0  0  0  0  0  0  0  0  0  0
  -19.9452   -9.4397   -4.0082 H   0  0  0  0  0  0  0  0  0  0  0  0
  1  2  1  0
  2  3  1  0
  3  4  1  0
  4  5  2  0
  5  6  1  0
  6  7  2  0
  7  8  1  0
  8  9  2  0
  9 10  1  0
 10 11  2  0
 11 12  1  0
 12 13  1  0
 13 14  1  0
 14 15  2  0
 14 16  1  0
 16 17  1  0
 17 18  2  0
 18 19  1  0
 19 20  2  0
 20 21  1  0
 21 22  2  0
 22 23  1  0
 12 24  2  0
  3  7  1  0
  8 24  1  0
 17 22  1  0
  1 25  1  0
  1 26  1  0
  1 27  1  0
  2 28  1  0
  2 29  1  0
  9 30  1  0
 10 31  1  0
 11 32  1  0
 13 33  1  0
 16 34  1  0
 16 35  1  0
 18 36  1  0
 19 37  1  0
 20 38  1  0
 21 39  1  0
 23 40  1  0
 23 41  1  0
 23 42  1  0
 43 44  2  0
 44 53  1  0
 44 45  1  0
 45 46  2  0
 46 52  1  0
 47 48  1  0
 47 52  2  0
 47 54  1  0
 48 49  2  0
 48 55  1  0
 49 56  1  0
 49 50  1  0
 50 57  1  0
 43 51  1  0
 50 51  2  0
 51 52  1  0
 24 46  1  0
M  END
>  <CHROM.1>  (64) 
-82.47700389,-160.56280652,0.18469452,74.79529170,-26.30661146,-18.34912369
-5.88734929,-1.34336050,2.37430369,0.07690764,1.19127423

>  <Name>  (64) 
design_0

>  <RI>  (64) 
12445400.000000

>  <Rbt.Current_Directory>  (64) 
/pylon5/mc5pksp/smaltr/gateway_workdirs/PROCESS_93251df5-8da2-4fa9-b874-71853b29d1ad

>  <Rbt.Executable>  (64) 
rbdock ($Id: //depot/dev/client3/rdock/2013.1/src/exe/rbdock.cxx#4 $)

>  <Rbt.Library>  (64) 
libRbt.so (2013.1, Build901 2013/11/27)

>  <Rbt.Parameter_File>  (64) 
/home/smaltr/software/rDock_2013.1_src//data/scripts/dock.prm

>  <Rbt.Receptor>  (64) 
/pylon5/mc5pksp/smaltr/gateway_workdirs/PROCESS_93251df5-8da2-4fa9-b874-71853b29d1ad/output/SnD-Target-Sep02/cavity/pocket_docking.prm

>  <SCORE>  (64) 
-19.693700

>  <SCORE.INTER>  (64) 
-19.878300

>  <SCORE.INTER.CONST>  (64) 
1

>  <SCORE.INTER.POLAR>  (64) 
-1.998350

>  <SCORE.INTER.REPUL>  (64) 
0

>  <SCORE.INTER.ROT>  (64) 
5

>  <SCORE.INTER.VDW>  (64) 
-23.483900

>  <SCORE.INTER.norm>  (64) 
-0.828262

>  <SCORE.INTRA>  (64) 
0.184616

>  <SCORE.INTRA.DIHEDRAL>  (64) 
0.686223

>  <SCORE.INTRA.DIHEDRAL.0>  (64) 
5.116130

>  <SCORE.INTRA.POLAR>  (64) 
0

>  <SCORE.INTRA.POLAR.0>  (64) 
0

>  <SCORE.INTRA.REPUL>  (64) 
0

>  <SCORE.INTRA.REPUL.0>  (64) 
0

>  <SCORE.INTRA.VDW>  (64) 
-0.158495

>  <SCORE.INTRA.VDW.0>  (64) 
-1.233420

>  <SCORE.INTRA.norm>  (64) 
0.007692

>  <SCORE.RESTR>  (64) 
0

>  <SCORE.RESTR.CAVITY>  (64) 
0

>  <SCORE.RESTR.norm>  (64) 
0

>  <SCORE.SYSTEM>  (64) 
0

>  <SCORE.SYSTEM.CONST>  (64) 
0

>  <SCORE.SYSTEM.DIHEDRAL>  (64) 
0

>  <SCORE.SYSTEM.norm>  (64) 
0

>  <SCORE.heavy>  (64) 
24

>  <SCORE.norm>  (64) 
-0.820569

>  <SMILES>  (64) 
CCn1nnnc1-c1cccc(NC(=O)Cc2ccccc2C)c1

>  <Cycle>  (64) 
228

>  <MolWeight>  (64) 
321.384000

>  <LogP>  (64) 
2.849620

>  <QED>  (64) 
0.784063

>  <SAS>  (64) 
2.0551966274651168

$$$$
design_0
     RDKit          3D

 57 61  0  0  0  0  0  0  0  0999 V2000
  -22.1516   -8.0657    0.8587 C   0  0  0  0  0  0  0  0  0  0  0  0
  -22.1155   -6.8694   -0.0529 C   0  0  0  0  0  0  0  0  0  0  0  0
  -22.1406   -5.6324    0.6576 N   0  0  0  0  0  0  0  0  0  0  0  0
  -23.3222   -5.1180    1.0854 N   0  0  0  0  0  0  0  0  0  0  0  0
  -23.1120   -3.9821    1.6836 N   0  0  0  0  0  0  0  0  0  0  0  0
  -21.8288   -3.7428    1.6576 N   0  0  0  0  0  0  0  0  0  0  0  0
  -21.2073   -4.7858    1.0093 C   0  0  0  0  0  0  0  0  0  0  0  0
  -19.7788   -4.8062    0.7933 C   0  0  0  0  0  0  0  0  0  0  0  0
  -18.9443   -4.0163    1.5979 C   0  0  0  0  0  0  0  0  0  0  0  0
  -17.5902   -4.0232    1.4494 C   0  0  0  0  0  0  0  0  0  0  0  0
  -16.9722   -4.8058    0.5020 C   0  0  0  0  0  0  0  0  0  0  0  0
  -17.7390   -5.5990   -0.3126 C   0  0  0  0  0  0  0  0  0  0  0  0
  -17.2078   -6.4263   -1.3205 N   0  0  0  0  0  0  0  0  0  0  0  0
  -15.8531   -6.5821   -1.6539 C   0  0  0  0  0  0  0  0  0  0  0  0
  -14.9365   -5.9819   -1.0758 O   0  0  0  0  0  0  0  0  0  0  0  0
  -15.4702   -7.5106   -2.7555 C   0  0  0  0  0  0  0  0  0  0  0  0
  -15.7651   -6.9657   -4.0851 C   0  0  0  0  0  0  0  0  0  0  0  0
  -16.7760   -6.0324   -4.2619 C   0  0  0  0  0  0  0  0  0  0  0  0
  -17.0602   -5.5123   -5.5074 C   0  0  0  0  0  0  0  0  0  0  0  0
  -16.3005   -5.9557   -6.5706 C   0  0  0  0  0  0  0  0  0  0  0  0
  -15.2908   -6.8846   -6.4100 C   0  0  0  0  0  0  0  0  0  0  0  0
  -15.0081   -7.4045   -5.1601 C   0  0  0  0  0  0  0  0  0  0  0  0
  -13.9417   -8.3976   -4.9320 C   0  0  0  0  0  0  0  0  0  0  0  0
  -19.1343   -5.5682   -0.1322 C   0  0  0  0  0  0  0  0  0  0  0  0
  -23.1223   -8.1168    1.3519 H   0  0  0  0  0  0  0  0  0  0  0  0
  -21.9930   -8.9727    0.2753 H   0  0  0  0  0  0  0  0  0  0  0  0
  -21.3673   -7.9745    1.6101 H   0  0  0  0  0  0  0  0  0  0  0  0
  -23.0073   -6.9066   -0.6785 H   0  0  0  0  0  0  0  0  0  0  0  0
  -21.2034   -6.9116   -0.6481 H   0  0  0  0  0  0  0  0  0  0  0  0
  -19.3911   -3.3803    2.3620 H   0  0  0  0  0  0  0  0  0  0  0  0
  -16.9813   -3.3929    2.0975 H   0  0  0  0  0  0  0  0  0  0  0  0
  -15.8870   -4.7957    0.4000 H   0  0  0  0  0  0  0  0  0  0  0  0
  -17.8709   -6.9640   -1.8602 H   0  0  0  0  0  0  0  0  0  0  0  0
  -16.0571   -8.4213   -2.6363 H   0  0  0  0  0  0  0  0  0  0  0  0
  -14.4005   -7.7091   -2.6889 H   0  0  0  0  0  0  0  0  0  0  0  0
  -17.3569   -5.7038   -3.4001 H   0  0  0  0  0  0  0  0  0  0  0  0
  -17.8546   -4.7790   -5.6465 H   0  0  0  0  0  0  0  0  0  0  0  0
  -16.5031   -5.5614   -7.5664 H   0  0  0  0  0  0  0  0  0  0  0  0
  -13.0718   -7.9030   -4.4999 H   0  0  0  0  0  0  0  0  0  0  0  0
  -14.3001   -9.1655   -4.2465 H   0  0  0  0  0  0  0  0  0  0  0  0
  -13.6637   -8.8574   -5.8804 H   0  0  0  0  0  0  0  0  0  0  0  0
  -19.7424   -6.1997   -0.7799 H   0  0  0  0  0  0  0  0  0  0  0  0
  -12.9482   -5.6296   -6.7125 N   0  0  0  0  0  0  0  0  0  0  0  0
  -11.7525   -5.1121   -7.0196 C   0  0  0  0  0  0  0  0  0  0  0  0
  -10.9974   -5.4756   -8.0714 N   0  0  0  0  0  0  0  0  0  0  0  0
  -11.4611   -6.4348   -8.8938 C   0  0  0  0  0  0  0  0  0  0  0  0
  -13.2011   -8.0284   -9.4921 C   0  0  0  0  0  0  0  0  0  0  0  0
  -14.4442   -8.6138   -9.2320 C   0  0  0  0  0  0  0  0  0  0  0  0
  -15.1997   -8.2060   -8.1240 C   0  0  0  0  0  0  0  0  0  0  0  0
  -14.7156   -7.2085   -7.2704 C   0  0  0  0  0  0  0  0  0  0  0  0
  -13.4687   -6.6079   -7.5142 C   0  0  0  0  0  0  0  0  0  0  0  0
  -12.7127   -7.0236   -8.6323 C   0  0  0  0  0  0  0  0  0  0  0  0
  -11.3628   -4.3399   -6.3701 H   0  0  0  0  0  0  0  0  0  0  0  0
  -10.8711   -6.7433   -9.7454 H   0  0  0  0  0  0  0  0  0  0  0  0
  -12.6277   -8.3523  -10.3495 H   0  0  0  0  0  0  0  0  0  0  0  0
  -14.8248   -9.3850   -9.8873 H   0  0  0  0  0  0  0  0  0  0  0  0
  -16.1604   -8.6626   -7.9284 H   0  0  0  0  0  0  0  0  0  0  0  0
  1  2  1  0
  2  3  1  0
  3  4  1  0
  4  5  2  0
  5  6  1  0
  6  7  2  0
  7  8  1  0
  8  9  2  0
  9 10  1  0
 10 11  2  0
 11 12  1  0
 12 13  1  0
 13 14  1  0
 14 15  2  0
 14 16  1  0
 16 17  1  0
 17 18  2  0
 18 19  1  0
 19 20  2  0
 20 21  1  0
 21 22  2  0
 22 23  1  0
 12 24  2  0
  3  7  1  0
  8 24  1  0
 17 22  1  0
  1 25  1  0
  1 26  1  0
  1 27  1  0
  2 28  1  0
  2 29  1  0
  9 30  1  0
 10 31  1  0
 11 32  1  0
 13 33  1  0
 16 34  1  0
 16 35  1  0
 18 36  1  0
 19 37  1  0
 20 38  1  0
 23 39  1  0
 23 40  1  0
 23 41  1  0
 24 42  1  0
 43 44  2  0
 44 53  1  0
 44 45  1  0
 45 46  2  0
 46 52  1  0
 46 54  1  0
 47 48  1  0
 47 52  2  0
 47 55  1  0
 48 49  2  0
 48 56  1  0
 49 57  1  0
 49 50  1  0
 43 51  1  0
 50 51  2  0
 51 52  1  0
 21 50  1  0
M  END
>  <CHROM.1>  (65) 
-82.47700389,-160.56280652,0.18469452,74.79529170,-26.30661146,-18.34912369
-5.88734929,-1.34336050,2.37430369,0.07690764,1.19127423

>  <Name>  (65) 
design_0

>  <RI>  (65) 
12445400.000000

>  <Rbt.Current_Directory>  (65) 
/pylon5/mc5pksp/smaltr/gateway_workdirs/PROCESS_93251df5-8da2-4fa9-b874-71853b29d1ad

>  <Rbt.Executable>  (65) 
rbdock ($Id: //depot/dev/client3/rdock/2013.1/src/exe/rbdock.cxx#4 $)

>  <Rbt.Library>  (65) 
libRbt.so (2013.1, Build901 2013/11/27)

>  <Rbt.Parameter_File>  (65) 
/home/smaltr/software/rDock_2013.1_src//data/scripts/dock.prm

>  <Rbt.Receptor>  (65) 
/pylon5/mc5pksp/smaltr/gateway_workdirs/PROCESS_93251df5-8da2-4fa9-b874-71853b29d1ad/output/SnD-Target-Sep02/cavity/pocket_docking.prm

>  <SCORE>  (65) 
-19.693700

>  <SCORE.INTER>  (65) 
-19.878300

>  <SCORE.INTER.CONST>  (65) 
1

>  <SCORE.INTER.POLAR>  (65) 
-1.998350

>  <SCORE.INTER.REPUL>  (65) 
0

>  <SCORE.INTER.ROT>  (65) 
5

>  <SCORE.INTER.VDW>  (65) 
-23.483900

>  <SCORE.INTER.norm>  (65) 
-0.828262

>  <SCORE.INTRA>  (65) 
0.184616

>  <SCORE.INTRA.DIHEDRAL>  (65) 
0.686223

>  <SCORE.INTRA.DIHEDRAL.0>  (65) 
5.116130

>  <SCORE.INTRA.POLAR>  (65) 
0

>  <SCORE.INTRA.POLAR.0>  (65) 
0

>  <SCORE.INTRA.REPUL>  (65) 
0

>  <SCORE.INTRA.REPUL.0>  (65) 
0

>  <SCORE.INTRA.VDW>  (65) 
-0.158495

>  <SCORE.INTRA.VDW.0>  (65) 
-1.233420

>  <SCORE.INTRA.norm>  (65) 
0.007692

>  <SCORE.RESTR>  (65) 
0

>  <SCORE.RESTR.CAVITY>  (65) 
0

>  <SCORE.RESTR.norm>  (65) 
0

>  <SCORE.SYSTEM>  (65) 
0

>  <SCORE.SYSTEM.CONST>  (65) 
0

>  <SCORE.SYSTEM.DIHEDRAL>  (65) 
0

>  <SCORE.SYSTEM.norm>  (65) 
0

>  <SCORE.heavy>  (65) 
24

>  <SCORE.norm>  (65) 
-0.820569

>  <SMILES>  (65) 
CCn1nnnc1-c1cccc(NC(=O)Cc2ccccc2C)c1

>  <Cycle>  (65) 
228

>  <MolWeight>  (65) 
321.384000

>  <LogP>  (65) 
2.849620

>  <QED>  (65) 
0.784063

>  <SAS>  (65) 
2.0129644686844372

$$$$
design_0
     RDKit          3D

 57 61  0  0  0  0  0  0  0  0999 V2000
  -22.1516   -8.0657    0.8587 C   0  0  0  0  0  0  0  0  0  0  0  0
  -22.1155   -6.8694   -0.0529 C   0  0  0  0  0  0  0  0  0  0  0  0
  -22.1406   -5.6324    0.6576 N   0  0  0  0  0  0  0  0  0  0  0  0
  -23.3222   -5.1180    1.0854 N   0  0  0  0  0  0  0  0  0  0  0  0
  -23.1120   -3.9821    1.6836 N   0  0  0  0  0  0  0  0  0  0  0  0
  -21.8288   -3.7428    1.6576 N   0  0  0  0  0  0  0  0  0  0  0  0
  -21.2073   -4.7858    1.0093 C   0  0  0  0  0  0  0  0  0  0  0  0
  -19.7788   -4.8062    0.7933 C   0  0  0  0  0  0  0  0  0  0  0  0
  -18.9443   -4.0163    1.5979 C   0  0  0  0  0  0  0  0  0  0  0  0
  -17.5902   -4.0232    1.4494 C   0  0  0  0  0  0  0  0  0  0  0  0
  -16.9722   -4.8058    0.5020 C   0  0  0  0  0  0  0  0  0  0  0  0
  -17.7390   -5.5990   -0.3126 C   0  0  0  0  0  0  0  0  0  0  0  0
  -17.2078   -6.4263   -1.3205 N   0  0  0  0  0  0  0  0  0  0  0  0
  -15.8531   -6.5821   -1.6539 C   0  0  0  0  0  0  0  0  0  0  0  0
  -14.9365   -5.9819   -1.0758 O   0  0  0  0  0  0  0  0  0  0  0  0
  -15.4702   -7.5106   -2.7555 C   0  0  0  0  0  0  0  0  0  0  0  0
  -15.7651   -6.9657   -4.0851 C   0  0  0  0  0  0  0  0  0  0  0  0
  -16.7760   -6.0324   -4.2619 C   0  0  0  0  0  0  0  0  0  0  0  0
  -17.0602   -5.5123   -5.5074 C   0  0  0  0  0  0  0  0  0  0  0  0
  -16.3005   -5.9557   -6.5706 C   0  0  0  0  0  0  0  0  0  0  0  0
  -15.2908   -6.8846   -6.4100 C   0  0  0  0  0  0  0  0  0  0  0  0
  -15.0081   -7.4045   -5.1601 C   0  0  0  0  0  0  0  0  0  0  0  0
  -13.9417   -8.3976   -4.9320 C   0  0  0  0  0  0  0  0  0  0  0  0
  -19.1343   -5.5682   -0.1322 C   0  0  0  0  0  0  0  0  0  0  0  0
  -23.1223   -8.1168    1.3519 H   0  0  0  0  0  0  0  0  0  0  0  0
  -21.9930   -8.9727    0.2753 H   0  0  0  0  0  0  0  0  0  0  0  0
  -21.3673   -7.9745    1.6101 H   0  0  0  0  0  0  0  0  0  0  0  0
  -23.0073   -6.9066   -0.6785 H   0  0  0  0  0  0  0  0  0  0  0  0
  -21.2034   -6.9116   -0.6481 H   0  0  0  0  0  0  0  0  0  0  0  0
  -19.3911   -3.3803    2.3620 H   0  0  0  0  0  0  0  0  0  0  0  0
  -16.9813   -3.3929    2.0975 H   0  0  0  0  0  0  0  0  0  0  0  0
  -15.8870   -4.7957    0.4000 H   0  0  0  0  0  0  0  0  0  0  0  0
  -17.8709   -6.9640   -1.8602 H   0  0  0  0  0  0  0  0  0  0  0  0
  -16.0571   -8.4213   -2.6363 H   0  0  0  0  0  0  0  0  0  0  0  0
  -14.4005   -7.7091   -2.6889 H   0  0  0  0  0  0  0  0  0  0  0  0
  -17.3569   -5.7038   -3.4001 H   0  0  0  0  0  0  0  0  0  0  0  0
  -17.8546   -4.7790   -5.6465 H   0  0  0  0  0  0  0  0  0  0  0  0
  -16.5031   -5.5614   -7.5664 H   0  0  0  0  0  0  0  0  0  0  0  0
  -13.0718   -7.9030   -4.4999 H   0  0  0  0  0  0  0  0  0  0  0  0
  -14.3001   -9.1655   -4.2465 H   0  0  0  0  0  0  0  0  0  0  0  0
  -13.6637   -8.8574   -5.8804 H   0  0  0  0  0  0  0  0  0  0  0  0
  -19.7424   -6.1997   -0.7799 H   0  0  0  0  0  0  0  0  0  0  0  0
  -13.2720   -8.0475   -9.4694 N   0  0  0  0  0  0  0  0  0  0  0  0
  -14.5404   -8.4089   -9.2400 C   0  0  0  0  0  0  0  0  0  0  0  0
  -15.2774   -8.0230   -8.1834 N   0  0  0  0  0  0  0  0  0  0  0  0
  -14.7150   -7.2088   -7.2712 C   0  0  0  0  0  0  0  0  0  0  0  0
  -12.7919   -5.9346   -6.4948 C   0  0  0  0  0  0  0  0  0  0  0  0
  -11.4690   -5.5164   -6.6706 C   0  0  0  0  0  0  0  0  0  0  0  0
  -10.7353   -5.9426   -7.7863 C   0  0  0  0  0  0  0  0  0  0  0  0
  -11.3222   -6.7890   -8.7335 C   0  0  0  0  0  0  0  0  0  0  0  0
  -12.6501   -7.2206   -8.5750 C   0  0  0  0  0  0  0  0  0  0  0  0
  -13.3836   -6.7875   -7.4485 C   0  0  0  0  0  0  0  0  0  0  0  0
  -15.0097   -9.0634   -9.9621 H   0  0  0  0  0  0  0  0  0  0  0  0
  -13.3469   -5.5995   -5.6296 H   0  0  0  0  0  0  0  0  0  0  0  0
  -11.0089   -4.8623   -5.9430 H   0  0  0  0  0  0  0  0  0  0  0  0
   -9.7127   -5.6155   -7.9167 H   0  0  0  0  0  0  0  0  0  0  0  0
  -10.7676   -7.1237   -9.5963 H   0  0  0  0  0  0  0  0  0  0  0  0
  1  2  1  0
  2  3  1  0
  3  4  1  0
  4  5  2  0
  5  6  1  0
  6  7  2  0
  7  8  1  0
  8  9  2  0
  9 10  1  0
 10 11  2  0
 11 12  1  0
 12 13  1  0
 13 14  1  0
 14 15  2  0
 14 16  1  0
 16 17  1  0
 17 18  2  0
 18 19  1  0
 19 20  2  0
 20 21  1  0
 21 22  2  0
 22 23  1  0
 12 24  2  0
  3  7  1  0
  8 24  1  0
 17 22  1  0
  1 25  1  0
  1 26  1  0
  1 27  1  0
  2 28  1  0
  2 29  1  0
  9 30  1  0
 10 31  1  0
 11 32  1  0
 13 33  1  0
 16 34  1  0
 16 35  1  0
 18 36  1  0
 19 37  1  0
 20 38  1  0
 23 39  1  0
 23 40  1  0
 23 41  1  0
 24 42  1  0
 43 44  2  0
 44 53  1  0
 44 45  1  0
 45 46  2  0
 46 52  1  0
 47 48  1  0
 47 52  2  0
 47 54  1  0
 48 49  2  0
 48 55  1  0
 49 56  1  0
 49 50  1  0
 50 57  1  0
 43 51  1  0
 50 51  2  0
 51 52  1  0
 21 46  1  0
M  END
>  <CHROM.1>  (66) 
-82.47700389,-160.56280652,0.18469452,74.79529170,-26.30661146,-18.34912369
-5.88734929,-1.34336050,2.37430369,0.07690764,1.19127423

>  <Name>  (66) 
design_0

>  <RI>  (66) 
12445400.000000

>  <Rbt.Current_Directory>  (66) 
/pylon5/mc5pksp/smaltr/gateway_workdirs/PROCESS_93251df5-8da2-4fa9-b874-71853b29d1ad

>  <Rbt.Executable>  (66) 
rbdock ($Id: //depot/dev/client3/rdock/2013.1/src/exe/rbdock.cxx#4 $)

>  <Rbt.Library>  (66) 
libRbt.so (2013.1, Build901 2013/11/27)

>  <Rbt.Parameter_File>  (66) 
/home/smaltr/software/rDock_2013.1_src//data/scripts/dock.prm

>  <Rbt.Receptor>  (66) 
/pylon5/mc5pksp/smaltr/gateway_workdirs/PROCESS_93251df5-8da2-4fa9-b874-71853b29d1ad/output/SnD-Target-Sep02/cavity/pocket_docking.prm

>  <SCORE>  (66) 
-19.693700

>  <SCORE.INTER>  (66) 
-19.878300

>  <SCORE.INTER.CONST>  (66) 
1

>  <SCORE.INTER.POLAR>  (66) 
-1.998350

>  <SCORE.INTER.REPUL>  (66) 
0

>  <SCORE.INTER.ROT>  (66) 
5

>  <SCORE.INTER.VDW>  (66) 
-23.483900

>  <SCORE.INTER.norm>  (66) 
-0.828262

>  <SCORE.INTRA>  (66) 
0.184616

>  <SCORE.INTRA.DIHEDRAL>  (66) 
0.686223

>  <SCORE.INTRA.DIHEDRAL.0>  (66) 
5.116130

>  <SCORE.INTRA.POLAR>  (66) 
0

>  <SCORE.INTRA.POLAR.0>  (66) 
0

>  <SCORE.INTRA.REPUL>  (66) 
0

>  <SCORE.INTRA.REPUL.0>  (66) 
0

>  <SCORE.INTRA.VDW>  (66) 
-0.158495

>  <SCORE.INTRA.VDW.0>  (66) 
-1.233420

>  <SCORE.INTRA.norm>  (66) 
0.007692

>  <SCORE.RESTR>  (66) 
0

>  <SCORE.RESTR.CAVITY>  (66) 
0

>  <SCORE.RESTR.norm>  (66) 
0

>  <SCORE.SYSTEM>  (66) 
0

>  <SCORE.SYSTEM.CONST>  (66) 
0

>  <SCORE.SYSTEM.DIHEDRAL>  (66) 
0

>  <SCORE.SYSTEM.norm>  (66) 
0

>  <SCORE.heavy>  (66) 
24

>  <SCORE.norm>  (66) 
-0.820569

>  <SMILES>  (66) 
CCn1nnnc1-c1cccc(NC(=O)Cc2ccccc2C)c1

>  <Cycle>  (66) 
228

>  <MolWeight>  (66) 
321.384000

>  <LogP>  (66) 
2.849620

>  <QED>  (66) 
0.784063

>  <SAS>  (66) 
2.0551966274651168

$$$$
design_0
     RDKit          3D

 57 61  0  0  0  0  0  0  0  0999 V2000
  -22.1516   -8.0657    0.8587 C   0  0  0  0  0  0  0  0  0  0  0  0
  -22.1155   -6.8694   -0.0529 C   0  0  0  0  0  0  0  0  0  0  0  0
  -22.1406   -5.6324    0.6576 N   0  0  0  0  0  0  0  0  0  0  0  0
  -23.3222   -5.1180    1.0854 N   0  0  0  0  0  0  0  0  0  0  0  0
  -23.1120   -3.9821    1.6836 N   0  0  0  0  0  0  0  0  0  0  0  0
  -21.8288   -3.7428    1.6576 N   0  0  0  0  0  0  0  0  0  0  0  0
  -21.2073   -4.7858    1.0093 C   0  0  0  0  0  0  0  0  0  0  0  0
  -19.7788   -4.8062    0.7933 C   0  0  0  0  0  0  0  0  0  0  0  0
  -18.9443   -4.0163    1.5979 C   0  0  0  0  0  0  0  0  0  0  0  0
  -17.5902   -4.0232    1.4494 C   0  0  0  0  0  0  0  0  0  0  0  0
  -16.9722   -4.8058    0.5020 C   0  0  0  0  0  0  0  0  0  0  0  0
  -17.7390   -5.5990   -0.3126 C   0  0  0  0  0  0  0  0  0  0  0  0
  -17.2078   -6.4263   -1.3205 N   0  0  0  0  0  0  0  0  0  0  0  0
  -15.8531   -6.5821   -1.6539 C   0  0  0  0  0  0  0  0  0  0  0  0
  -14.9365   -5.9819   -1.0758 O   0  0  0  0  0  0  0  0  0  0  0  0
  -15.4702   -7.5106   -2.7555 C   0  0  0  0  0  0  0  0  0  0  0  0
  -15.7651   -6.9657   -4.0851 C   0  0  0  0  0  0  0  0  0  0  0  0
  -16.7760   -6.0324   -4.2619 C   0  0  0  0  0  0  0  0  0  0  0  0
  -17.0602   -5.5123   -5.5074 C   0  0  0  0  0  0  0  0  0  0  0  0
  -16.3005   -5.9557   -6.5706 C   0  0  0  0  0  0  0  0  0  0  0  0
  -15.2908   -6.8846   -6.4100 C   0  0  0  0  0  0  0  0  0  0  0  0
  -15.0081   -7.4045   -5.1601 C   0  0  0  0  0  0  0  0  0  0  0  0
  -13.9417   -8.3976   -4.9320 C   0  0  0  0  0  0  0  0  0  0  0  0
  -19.1343   -5.5682   -0.1322 C   0  0  0  0  0  0  0  0  0  0  0  0
  -23.1223   -8.1168    1.3519 H   0  0  0  0  0  0  0  0  0  0  0  0
  -21.9930   -8.9727    0.2753 H   0  0  0  0  0  0  0  0  0  0  0  0
  -21.3673   -7.9745    1.6101 H   0  0  0  0  0  0  0  0  0  0  0  0
  -23.0073   -6.9066   -0.6785 H   0  0  0  0  0  0  0  0  0  0  0  0
  -21.2034   -6.9116   -0.6481 H   0  0  0  0  0  0  0  0  0  0  0  0
  -19.3911   -3.3803    2.3620 H   0  0  0  0  0  0  0  0  0  0  0  0
  -16.9813   -3.3929    2.0975 H   0  0  0  0  0  0  0  0  0  0  0  0
  -15.8870   -4.7957    0.4000 H   0  0  0  0  0  0  0  0  0  0  0  0
  -17.8709   -6.9640   -1.8602 H   0  0  0  0  0  0  0  0  0  0  0  0
  -16.0571   -8.4213   -2.6363 H   0  0  0  0  0  0  0  0  0  0  0  0
  -14.4005   -7.7091   -2.6889 H   0  0  0  0  0  0  0  0  0  0  0  0
  -17.8546   -4.7790   -5.6465 H   0  0  0  0  0  0  0  0  0  0  0  0
  -16.5031   -5.5614   -7.5664 H   0  0  0  0  0  0  0  0  0  0  0  0
  -14.7126   -7.2102   -7.2748 H   0  0  0  0  0  0  0  0  0  0  0  0
  -13.0718   -7.9030   -4.4999 H   0  0  0  0  0  0  0  0  0  0  0  0
  -14.3001   -9.1655   -4.2465 H   0  0  0  0  0  0  0  0  0  0  0  0
  -13.6637   -8.8574   -5.8804 H   0  0  0  0  0  0  0  0  0  0  0  0
  -19.7424   -6.1997   -0.7799 H   0  0  0  0  0  0  0  0  0  0  0  0
  -15.6277   -6.5283   -1.8977 N   0  0  0  0  0  0  0  0  0  0  0  0
  -15.2086   -6.6941   -0.6372 C   0  0  0  0  0  0  0  0  0  0  0  0
  -15.8825   -6.3085    0.4608 N   0  0  0  0  0  0  0  0  0  0  0  0
  -17.0754   -5.7055    0.3034 C   0  0  0  0  0  0  0  0  0  0  0  0
  -18.8286   -4.8678   -1.1627 C   0  0  0  0  0  0  0  0  0  0  0  0
  -19.3289   -4.6619   -2.4523 C   0  0  0  0  0  0  0  0  0  0  0  0
  -18.5939   -5.0787   -3.5707 C   0  0  0  0  0  0  0  0  0  0  0  0
  -17.3539   -5.7055   -3.4045 C   0  0  0  0  0  0  0  0  0  0  0  0
  -16.8336   -5.9214   -2.1171 C   0  0  0  0  0  0  0  0  0  0  0  0
  -17.5793   -5.4988   -0.9947 C   0  0  0  0  0  0  0  0  0  0  0  0
  -14.2518   -7.1766   -0.4903 H   0  0  0  0  0  0  0  0  0  0  0  0
  -17.6348   -5.3868    1.1717 H   0  0  0  0  0  0  0  0  0  0  0  0
  -19.4048   -4.5409   -0.3084 H   0  0  0  0  0  0  0  0  0  0  0  0
  -20.2864   -4.1783   -2.5885 H   0  0  0  0  0  0  0  0  0  0  0  0
  -18.9865   -4.9168   -4.5654 H   0  0  0  0  0  0  0  0  0  0  0  0
  1  2  1  0
  2  3  1  0
  3  4  1  0
  4  5  2  0
  5  6  1  0
  6  7  2  0
  7  8  1  0
  8  9  2  0
  9 10  1  0
 10 11  2  0
 11 12  1  0
 12 13  1  0
 13 14  1  0
 14 15  2  0
 14 16  1  0
 16 17  1  0
 17 18  1  0
 18 19  2  0
 19 20  1  0
 20 21  2  0
 21 22  1  0
 22 23  1  0
 12 24  2  0
  3  7  1  0
  8 24  1  0
 17 22  2  0
  1 25  1  0
  1 26  1  0
  1 27  1  0
  2 28  1  0
  2 29  1  0
  9 30  1  0
 10 31  1  0
 11 32  1  0
 13 33  1  0
 16 34  1  0
 16 35  1  0
 19 36  1  0
 20 37  1  0
 21 38  1  0
 23 39  1  0
 23 40  1  0
 23 41  1  0
 24 42  1  0
 43 44  2  0
 44 53  1  0
 44 45  1  0
 45 46  2  0
 46 52  1  0
 46 54  1  0
 47 48  1  0
 47 52  2  0
 47 55  1  0
 48 49  2  0
 48 56  1  0
 49 57  1  0
 49 50  1  0
 43 51  1  0
 50 51  2  0
 51 52  1  0
 18 50  1  0
M  END
>  <CHROM.1>  (67) 
-82.47700389,-160.56280652,0.18469452,74.79529170,-26.30661146,-18.34912369
-5.88734929,-1.34336050,2.37430369,0.07690764,1.19127423

>  <Name>  (67) 
design_0

>  <RI>  (67) 
12445400.000000

>  <Rbt.Current_Directory>  (67) 
/pylon5/mc5pksp/smaltr/gateway_workdirs/PROCESS_93251df5-8da2-4fa9-b874-71853b29d1ad

>  <Rbt.Executable>  (67) 
rbdock ($Id: //depot/dev/client3/rdock/2013.1/src/exe/rbdock.cxx#4 $)

>  <Rbt.Library>  (67) 
libRbt.so (2013.1, Build901 2013/11/27)

>  <Rbt.Parameter_File>  (67) 
/home/smaltr/software/rDock_2013.1_src//data/scripts/dock.prm

>  <Rbt.Receptor>  (67) 
/pylon5/mc5pksp/smaltr/gateway_workdirs/PROCESS_93251df5-8da2-4fa9-b874-71853b29d1ad/output/SnD-Target-Sep02/cavity/pocket_docking.prm

>  <SCORE>  (67) 
-19.693700

>  <SCORE.INTER>  (67) 
-19.878300

>  <SCORE.INTER.CONST>  (67) 
1

>  <SCORE.INTER.POLAR>  (67) 
-1.998350

>  <SCORE.INTER.REPUL>  (67) 
0

>  <SCORE.INTER.ROT>  (67) 
5

>  <SCORE.INTER.VDW>  (67) 
-23.483900

>  <SCORE.INTER.norm>  (67) 
-0.828262

>  <SCORE.INTRA>  (67) 
0.184616

>  <SCORE.INTRA.DIHEDRAL>  (67) 
0.686223

>  <SCORE.INTRA.DIHEDRAL.0>  (67) 
5.116130

>  <SCORE.INTRA.POLAR>  (67) 
0

>  <SCORE.INTRA.POLAR.0>  (67) 
0

>  <SCORE.INTRA.REPUL>  (67) 
0

>  <SCORE.INTRA.REPUL.0>  (67) 
0

>  <SCORE.INTRA.VDW>  (67) 
-0.158495

>  <SCORE.INTRA.VDW.0>  (67) 
-1.233420

>  <SCORE.INTRA.norm>  (67) 
0.007692

>  <SCORE.RESTR>  (67) 
0

>  <SCORE.RESTR.CAVITY>  (67) 
0

>  <SCORE.RESTR.norm>  (67) 
0

>  <SCORE.SYSTEM>  (67) 
0

>  <SCORE.SYSTEM.CONST>  (67) 
0

>  <SCORE.SYSTEM.DIHEDRAL>  (67) 
0

>  <SCORE.SYSTEM.norm>  (67) 
0

>  <SCORE.heavy>  (67) 
24

>  <SCORE.norm>  (67) 
-0.820569

>  <SMILES>  (67) 
CCn1nnnc1-c1cccc(NC(=O)Cc2ccccc2C)c1

>  <Cycle>  (67) 
228

>  <MolWeight>  (67) 
321.384000

>  <LogP>  (67) 
2.849620

>  <QED>  (67) 
0.784063

>  <SAS>  (67) 
2.0129644686844372

$$$$
design_0
     RDKit          3D

 57 61  0  0  0  0  0  0  0  0999 V2000
  -22.1516   -8.0657    0.8587 C   0  0  0  0  0  0  0  0  0  0  0  0
  -22.1155   -6.8694   -0.0529 C   0  0  0  0  0  0  0  0  0  0  0  0
  -22.1406   -5.6324    0.6576 N   0  0  0  0  0  0  0  0  0  0  0  0
  -23.3222   -5.1180    1.0854 N   0  0  0  0  0  0  0  0  0  0  0  0
  -23.1120   -3.9821    1.6836 N   0  0  0  0  0  0  0  0  0  0  0  0
  -21.8288   -3.7428    1.6576 N   0  0  0  0  0  0  0  0  0  0  0  0
  -21.2073   -4.7858    1.0093 C   0  0  0  0  0  0  0  0  0  0  0  0
  -19.7788   -4.8062    0.7933 C   0  0  0  0  0  0  0  0  0  0  0  0
  -18.9443   -4.0163    1.5979 C   0  0  0  0  0  0  0  0  0  0  0  0
  -17.5902   -4.0232    1.4494 C   0  0  0  0  0  0  0  0  0  0  0  0
  -16.9722   -4.8058    0.5020 C   0  0  0  0  0  0  0  0  0  0  0  0
  -17.7390   -5.5990   -0.3126 C   0  0  0  0  0  0  0  0  0  0  0  0
  -17.2078   -6.4263   -1.3205 N   0  0  0  0  0  0  0  0  0  0  0  0
  -15.8531   -6.5821   -1.6539 C   0  0  0  0  0  0  0  0  0  0  0  0
  -14.9365   -5.9819   -1.0758 O   0  0  0  0  0  0  0  0  0  0  0  0
  -15.4702   -7.5106   -2.7555 C   0  0  0  0  0  0  0  0  0  0  0  0
  -15.7651   -6.9657   -4.0851 C   0  0  0  0  0  0  0  0  0  0  0  0
  -16.7760   -6.0324   -4.2619 C   0  0  0  0  0  0  0  0  0  0  0  0
  -17.0602   -5.5123   -5.5074 C   0  0  0  0  0  0  0  0  0  0  0  0
  -16.3005   -5.9557   -6.5706 C   0  0  0  0  0  0  0  0  0  0  0  0
  -15.2908   -6.8846   -6.4100 C   0  0  0  0  0  0  0  0  0  0  0  0
  -15.0081   -7.4045   -5.1601 C   0  0  0  0  0  0  0  0  0  0  0  0
  -13.9417   -8.3976   -4.9320 C   0  0  0  0  0  0  0  0  0  0  0  0
  -19.1343   -5.5682   -0.1322 C   0  0  0  0  0  0  0  0  0  0  0  0
  -23.1223   -8.1168    1.3519 H   0  0  0  0  0  0  0  0  0  0  0  0
  -21.9930   -8.9727    0.2753 H   0  0  0  0  0  0  0  0  0  0  0  0
  -21.3673   -7.9745    1.6101 H   0  0  0  0  0  0  0  0  0  0  0  0
  -23.0073   -6.9066   -0.6785 H   0  0  0  0  0  0  0  0  0  0  0  0
  -21.2034   -6.9116   -0.6481 H   0  0  0  0  0  0  0  0  0  0  0  0
  -19.3911   -3.3803    2.3620 H   0  0  0  0  0  0  0  0  0  0  0  0
  -16.9813   -3.3929    2.0975 H   0  0  0  0  0  0  0  0  0  0  0  0
  -15.8870   -4.7957    0.4000 H   0  0  0  0  0  0  0  0  0  0  0  0
  -17.8709   -6.9640   -1.8602 H   0  0  0  0  0  0  0  0  0  0  0  0
  -16.0571   -8.4213   -2.6363 H   0  0  0  0  0  0  0  0  0  0  0  0
  -14.4005   -7.7091   -2.6889 H   0  0  0  0  0  0  0  0  0  0  0  0
  -17.8546   -4.7790   -5.6465 H   0  0  0  0  0  0  0  0  0  0  0  0
  -16.5031   -5.5614   -7.5664 H   0  0  0  0  0  0  0  0  0  0  0  0
  -14.7126   -7.2102   -7.2748 H   0  0  0  0  0  0  0  0  0  0  0  0
  -13.0718   -7.9030   -4.4999 H   0  0  0  0  0  0  0  0  0  0  0  0
  -14.3001   -9.1655   -4.2465 H   0  0  0  0  0  0  0  0  0  0  0  0
  -13.6637   -8.8574   -5.8804 H   0  0  0  0  0  0  0  0  0  0  0  0
  -19.7424   -6.1997   -0.7799 H   0  0  0  0  0  0  0  0  0  0  0  0
  -18.8464   -4.8872   -1.2304 N   0  0  0  0  0  0  0  0  0  0  0  0
  -19.3176   -5.7027   -2.1817 C   0  0  0  0  0  0  0  0  0  0  0  0
  -18.6247   -6.1243   -3.2544 N   0  0  0  0  0  0  0  0  0  0  0  0
  -17.3545   -5.7052   -3.4037 C   0  0  0  0  0  0  0  0  0  0  0  0
  -15.4623   -4.4055   -2.5941 C   0  0  0  0  0  0  0  0  0  0  0  0
  -14.9042   -3.5515   -1.6376 C   0  0  0  0  0  0  0  0  0  0  0  0
  -15.6615   -3.1349   -0.5340 C   0  0  0  0  0  0  0  0  0  0  0  0
  -16.9819   -3.5722   -0.3809 C   0  0  0  0  0  0  0  0  0  0  0  0
  -17.5611   -4.4303   -1.3310 C   0  0  0  0  0  0  0  0  0  0  0  0
  -16.7926   -4.8460   -2.4405 C   0  0  0  0  0  0  0  0  0  0  0  0
  -20.3368   -6.0501   -2.0793 H   0  0  0  0  0  0  0  0  0  0  0  0
  -14.8680   -4.7188   -3.4411 H   0  0  0  0  0  0  0  0  0  0  0  0
  -13.8845   -3.2096   -1.7492 H   0  0  0  0  0  0  0  0  0  0  0  0
  -15.2240   -2.4746    0.2024 H   0  0  0  0  0  0  0  0  0  0  0  0
  -17.5747   -3.2585    0.4642 H   0  0  0  0  0  0  0  0  0  0  0  0
  1  2  1  0
  2  3  1  0
  3  4  1  0
  4  5  2  0
  5  6  1  0
  6  7  2  0
  7  8  1  0
  8  9  2  0
  9 10  1  0
 10 11  2  0
 11 12  1  0
 12 13  1  0
 13 14  1  0
 14 15  2  0
 14 16  1  0
 16 17  1  0
 17 18  1  0
 18 19  2  0
 19 20  1  0
 20 21  2  0
 21 22  1  0
 22 23  1  0
 12 24  2  0
  3  7  1  0
  8 24  1  0
 17 22  2  0
  1 25  1  0
  1 26  1  0
  1 27  1  0
  2 28  1  0
  2 29  1  0
  9 30  1  0
 10 31  1  0
 11 32  1  0
 13 33  1  0
 16 34  1  0
 16 35  1  0
 19 36  1  0
 20 37  1  0
 21 38  1  0
 23 39  1  0
 23 40  1  0
 23 41  1  0
 24 42  1  0
 43 44  2  0
 44 53  1  0
 44 45  1  0
 45 46  2  0
 46 52  1  0
 47 48  1  0
 47 52  2  0
 47 54  1  0
 48 49  2  0
 48 55  1  0
 49 56  1  0
 49 50  1  0
 50 57  1  0
 43 51  1  0
 50 51  2  0
 51 52  1  0
 18 46  1  0
M  END
>  <CHROM.1>  (68) 
-82.47700389,-160.56280652,0.18469452,74.79529170,-26.30661146,-18.34912369
-5.88734929,-1.34336050,2.37430369,0.07690764,1.19127423

>  <Name>  (68) 
design_0

>  <RI>  (68) 
12445400.000000

>  <Rbt.Current_Directory>  (68) 
/pylon5/mc5pksp/smaltr/gateway_workdirs/PROCESS_93251df5-8da2-4fa9-b874-71853b29d1ad

>  <Rbt.Executable>  (68) 
rbdock ($Id: //depot/dev/client3/rdock/2013.1/src/exe/rbdock.cxx#4 $)

>  <Rbt.Library>  (68) 
libRbt.so (2013.1, Build901 2013/11/27)

>  <Rbt.Parameter_File>  (68) 
/home/smaltr/software/rDock_2013.1_src//data/scripts/dock.prm

>  <Rbt.Receptor>  (68) 
/pylon5/mc5pksp/smaltr/gateway_workdirs/PROCESS_93251df5-8da2-4fa9-b874-71853b29d1ad/output/SnD-Target-Sep02/cavity/pocket_docking.prm

>  <SCORE>  (68) 
-19.693700

>  <SCORE.INTER>  (68) 
-19.878300

>  <SCORE.INTER.CONST>  (68) 
1

>  <SCORE.INTER.POLAR>  (68) 
-1.998350

>  <SCORE.INTER.REPUL>  (68) 
0

>  <SCORE.INTER.ROT>  (68) 
5

>  <SCORE.INTER.VDW>  (68) 
-23.483900

>  <SCORE.INTER.norm>  (68) 
-0.828262

>  <SCORE.INTRA>  (68) 
0.184616

>  <SCORE.INTRA.DIHEDRAL>  (68) 
0.686223

>  <SCORE.INTRA.DIHEDRAL.0>  (68) 
5.116130

>  <SCORE.INTRA.POLAR>  (68) 
0

>  <SCORE.INTRA.POLAR.0>  (68) 
0

>  <SCORE.INTRA.REPUL>  (68) 
0

>  <SCORE.INTRA.REPUL.0>  (68) 
0

>  <SCORE.INTRA.VDW>  (68) 
-0.158495

>  <SCORE.INTRA.VDW.0>  (68) 
-1.233420

>  <SCORE.INTRA.norm>  (68) 
0.007692

>  <SCORE.RESTR>  (68) 
0

>  <SCORE.RESTR.CAVITY>  (68) 
0

>  <SCORE.RESTR.norm>  (68) 
0

>  <SCORE.SYSTEM>  (68) 
0

>  <SCORE.SYSTEM.CONST>  (68) 
0

>  <SCORE.SYSTEM.DIHEDRAL>  (68) 
0

>  <SCORE.SYSTEM.norm>  (68) 
0

>  <SCORE.heavy>  (68) 
24

>  <SCORE.norm>  (68) 
-0.820569

>  <SMILES>  (68) 
CCn1nnnc1-c1cccc(NC(=O)Cc2ccccc2C)c1

>  <Cycle>  (68) 
228

>  <MolWeight>  (68) 
321.384000

>  <LogP>  (68) 
2.849620

>  <QED>  (68) 
0.784063

>  <SAS>  (68) 
2.0551966274651168

$$$$
design_0
     RDKit          3D

 57 61  0  0  0  0  0  0  0  0999 V2000
  -22.1516   -8.0657    0.8587 C   0  0  0  0  0  0  0  0  0  0  0  0
  -22.1155   -6.8694   -0.0529 C   0  0  0  0  0  0  0  0  0  0  0  0
  -22.1406   -5.6324    0.6576 N   0  0  0  0  0  0  0  0  0  0  0  0
  -23.3222   -5.1180    1.0854 N   0  0  0  0  0  0  0  0  0  0  0  0
  -23.1120   -3.9821    1.6836 N   0  0  0  0  0  0  0  0  0  0  0  0
  -21.8288   -3.7428    1.6576 N   0  0  0  0  0  0  0  0  0  0  0  0
  -21.2073   -4.7858    1.0093 C   0  0  0  0  0  0  0  0  0  0  0  0
  -19.7788   -4.8062    0.7933 C   0  0  0  0  0  0  0  0  0  0  0  0
  -18.9443   -4.0163    1.5979 C   0  0  0  0  0  0  0  0  0  0  0  0
  -17.5902   -4.0232    1.4494 C   0  0  0  0  0  0  0  0  0  0  0  0
  -16.9722   -4.8058    0.5020 C   0  0  0  0  0  0  0  0  0  0  0  0
  -17.7390   -5.5990   -0.3126 C   0  0  0  0  0  0  0  0  0  0  0  0
  -17.2078   -6.4263   -1.3205 N   0  0  0  0  0  0  0  0  0  0  0  0
  -15.8531   -6.5821   -1.6539 C   0  0  0  0  0  0  0  0  0  0  0  0
  -14.9365   -5.9819   -1.0758 O   0  0  0  0  0  0  0  0  0  0  0  0
  -15.4702   -7.5106   -2.7555 C   0  0  0  0  0  0  0  0  0  0  0  0
  -15.7651   -6.9657   -4.0851 C   0  0  0  0  0  0  0  0  0  0  0  0
  -16.7760   -6.0324   -4.2619 C   0  0  0  0  0  0  0  0  0  0  0  0
  -17.0602   -5.5123   -5.5074 C   0  0  0  0  0  0  0  0  0  0  0  0
  -16.3005   -5.9557   -6.5706 C   0  0  0  0  0  0  0  0  0  0  0  0
  -15.2908   -6.8846   -6.4100 C   0  0  0  0  0  0  0  0  0  0  0  0
  -15.0081   -7.4045   -5.1601 C   0  0  0  0  0  0  0  0  0  0  0  0
  -13.9417   -8.3976   -4.9320 C   0  0  0  0  0  0  0  0  0  0  0  0
  -19.1343   -5.5682   -0.1322 C   0  0  0  0  0  0  0  0  0  0  0  0
  -23.1223   -8.1168    1.3519 H   0  0  0  0  0  0  0  0  0  0  0  0
  -21.9930   -8.9727    0.2753 H   0  0  0  0  0  0  0  0  0  0  0  0
  -21.3673   -7.9745    1.6101 H   0  0  0  0  0  0  0  0  0  0  0  0
  -23.0073   -6.9066   -0.6785 H   0  0  0  0  0  0  0  0  0  0  0  0
  -21.2034   -6.9116   -0.6481 H   0  0  0  0  0  0  0  0  0  0  0  0
  -19.3911   -3.3803    2.3620 H   0  0  0  0  0  0  0  0  0  0  0  0
  -16.9813   -3.3929    2.0975 H   0  0  0  0  0  0  0  0  0  0  0  0
  -15.8870   -4.7957    0.4000 H   0  0  0  0  0  0  0  0  0  0  0  0
  -16.0571   -8.4213   -2.6363 H   0  0  0  0  0  0  0  0  0  0  0  0
  -14.4005   -7.7091   -2.6889 H   0  0  0  0  0  0  0  0  0  0  0  0
  -17.3569   -5.7038   -3.4001 H   0  0  0  0  0  0  0  0  0  0  0  0
  -17.8546   -4.7790   -5.6465 H   0  0  0  0  0  0  0  0  0  0  0  0
  -16.5031   -5.5614   -7.5664 H   0  0  0  0  0  0  0  0  0  0  0  0
  -14.7126   -7.2102   -7.2748 H   0  0  0  0  0  0  0  0  0  0  0  0
  -13.0718   -7.9030   -4.4999 H   0  0  0  0  0  0  0  0  0  0  0  0
  -14.3001   -9.1655   -4.2465 H   0  0  0  0  0  0  0  0  0  0  0  0
  -13.6637   -8.8574   -5.8804 H   0  0  0  0  0  0  0  0  0  0  0  0
  -19.7424   -6.1997   -0.7799 H   0  0  0  0  0  0  0  0  0  0  0  0
  -20.2567  -10.0950   -4.9678 C   0  0  0  0  0  0  0  0  0  0  0  0
  -18.8873  -10.3191   -5.1546 C   0  0  0  0  0  0  0  0  0  0  0  0
  -17.9506   -9.5858   -4.4189 C   0  0  0  0  0  0  0  0  0  0  0  0
  -20.6904   -9.1380   -4.0443 C   0  0  0  0  0  0  0  0  0  0  0  0
  -19.7672   -8.3892   -3.2937 C   0  0  0  0  0  0  0  0  0  0  0  0
  -18.3627   -8.6195   -3.4855 C   0  0  0  0  0  0  0  0  0  0  0  0
  -17.4411   -7.8952   -2.7578 N   0  0  0  0  0  0  0  0  0  0  0  0
  -17.8942   -6.9829   -1.8792 C   0  0  0  0  0  0  0  0  0  0  0  0
  -19.2636   -6.7595   -1.6916 C   0  0  0  0  0  0  0  0  0  0  0  0
  -20.1925   -7.4447   -2.3822 N   0  0  0  0  0  0  0  0  0  0  0  0
  -20.9802  -10.6622   -5.5377 H   0  0  0  0  0  0  0  0  0  0  0  0
  -18.5524  -11.0589   -5.8692 H   0  0  0  0  0  0  0  0  0  0  0  0
  -16.8921   -9.7459   -4.5498 H   0  0  0  0  0  0  0  0  0  0  0  0
  -21.7416   -8.9522   -3.8877 H   0  0  0  0  0  0  0  0  0  0  0  0
  -19.5799   -6.0157   -0.9739 H   0  0  0  0  0  0  0  0  0  0  0  0
  1  2  1  0
  2  3  1  0
  3  4  1  0
  4  5  2  0
  5  6  1  0
  6  7  2  0
  7  8  1  0
  8  9  2  0
  9 10  1  0
 10 11  2  0
 11 12  1  0
 12 13  1  0
 13 14  1  0
 14 15  2  0
 14 16  1  0
 16 17  1  0
 17 18  2  0
 18 19  1  0
 19 20  2  0
 20 21  1  0
 21 22  2  0
 22 23  1  0
 12 24  2  0
  3  7  1  0
  8 24  1  0
 17 22  1  0
  1 25  1  0
  1 26  1  0
  1 27  1  0
  2 28  1  0
  2 29  1  0
  9 30  1  0
 10 31  1  0
 11 32  1  0
 16 33  1  0
 16 34  1  0
 18 35  1  0
 19 36  1  0
 20 37  1  0
 21 38  1  0
 23 39  1  0
 23 40  1  0
 23 41  1  0
 24 42  1  0
 43 44  2  0
 43 46  1  0
 43 53  1  0
 44 45  1  0
 44 54  1  0
 45 48  2  0
 45 55  1  0
 46 47  2  0
 46 56  1  0
 47 48  1  0
 47 52  1  0
 48 49  1  0
 49 50  2  0
 50 51  1  0
 51 52  2  0
 51 57  1  0
 13 50  1  0
M  END
>  <CHROM.1>  (69) 
-82.47700389,-160.56280652,0.18469452,74.79529170,-26.30661146,-18.34912369
-5.88734929,-1.34336050,2.37430369,0.07690764,1.19127423

>  <Name>  (69) 
design_0

>  <RI>  (69) 
12445400.000000

>  <Rbt.Current_Directory>  (69) 
/pylon5/mc5pksp/smaltr/gateway_workdirs/PROCESS_93251df5-8da2-4fa9-b874-71853b29d1ad

>  <Rbt.Executable>  (69) 
rbdock ($Id: //depot/dev/client3/rdock/2013.1/src/exe/rbdock.cxx#4 $)

>  <Rbt.Library>  (69) 
libRbt.so (2013.1, Build901 2013/11/27)

>  <Rbt.Parameter_File>  (69) 
/home/smaltr/software/rDock_2013.1_src//data/scripts/dock.prm

>  <Rbt.Receptor>  (69) 
/pylon5/mc5pksp/smaltr/gateway_workdirs/PROCESS_93251df5-8da2-4fa9-b874-71853b29d1ad/output/SnD-Target-Sep02/cavity/pocket_docking.prm

>  <SCORE>  (69) 
-19.693700

>  <SCORE.INTER>  (69) 
-19.878300

>  <SCORE.INTER.CONST>  (69) 
1

>  <SCORE.INTER.POLAR>  (69) 
-1.998350

>  <SCORE.INTER.REPUL>  (69) 
0

>  <SCORE.INTER.ROT>  (69) 
5

>  <SCORE.INTER.VDW>  (69) 
-23.483900

>  <SCORE.INTER.norm>  (69) 
-0.828262

>  <SCORE.INTRA>  (69) 
0.184616

>  <SCORE.INTRA.DIHEDRAL>  (69) 
0.686223

>  <SCORE.INTRA.DIHEDRAL.0>  (69) 
5.116130

>  <SCORE.INTRA.POLAR>  (69) 
0

>  <SCORE.INTRA.POLAR.0>  (69) 
0

>  <SCORE.INTRA.REPUL>  (69) 
0

>  <SCORE.INTRA.REPUL.0>  (69) 
0

>  <SCORE.INTRA.VDW>  (69) 
-0.158495

>  <SCORE.INTRA.VDW.0>  (69) 
-1.233420

>  <SCORE.INTRA.norm>  (69) 
0.007692

>  <SCORE.RESTR>  (69) 
0

>  <SCORE.RESTR.CAVITY>  (69) 
0

>  <SCORE.RESTR.norm>  (69) 
0

>  <SCORE.SYSTEM>  (69) 
0

>  <SCORE.SYSTEM.CONST>  (69) 
0

>  <SCORE.SYSTEM.DIHEDRAL>  (69) 
0

>  <SCORE.SYSTEM.norm>  (69) 
0

>  <SCORE.heavy>  (69) 
24

>  <SCORE.norm>  (69) 
-0.820569

>  <SMILES>  (69) 
CCn1nnnc1-c1cccc(NC(=O)Cc2ccccc2C)c1

>  <Cycle>  (69) 
228

>  <MolWeight>  (69) 
321.384000

>  <LogP>  (69) 
2.849620

>  <QED>  (69) 
0.784063

>  <SAS>  (69) 
1

$$$$
design_0
     RDKit          3D

 48 50  0  0  0  0  0  0  0  0999 V2000
  -22.1516   -8.0657    0.8587 C   0  0  0  0  0  0  0  0  0  0  0  0
  -22.1155   -6.8694   -0.0529 C   0  0  0  0  0  0  0  0  0  0  0  0
  -22.1406   -5.6324    0.6576 N   0  0  0  0  0  0  0  0  0  0  0  0
  -23.3222   -5.1180    1.0854 N   0  0  0  0  0  0  0  0  0  0  0  0
  -23.1120   -3.9821    1.6836 N   0  0  0  0  0  0  0  0  0  0  0  0
  -21.8288   -3.7428    1.6576 N   0  0  0  0  0  0  0  0  0  0  0  0
  -21.2073   -4.7858    1.0093 C   0  0  0  0  0  0  0  0  0  0  0  0
  -19.7788   -4.8062    0.7933 C   0  0  0  0  0  0  0  0  0  0  0  0
  -18.9443   -4.0163    1.5979 C   0  0  0  0  0  0  0  0  0  0  0  0
  -17.5902   -4.0232    1.4494 C   0  0  0  0  0  0  0  0  0  0  0  0
  -16.9722   -4.8058    0.5020 C   0  0  0  0  0  0  0  0  0  0  0  0
  -17.7390   -5.5990   -0.3126 C   0  0  0  0  0  0  0  0  0  0  0  0
  -17.2078   -6.4263   -1.3205 N   0  0  0  0  0  0  0  0  0  0  0  0
  -15.8531   -6.5821   -1.6539 C   0  0  0  0  0  0  0  0  0  0  0  0
  -14.9365   -5.9819   -1.0758 O   0  0  0  0  0  0  0  0  0  0  0  0
  -15.4702   -7.5106   -2.7555 C   0  0  0  0  0  0  0  0  0  0  0  0
  -15.7651   -6.9657   -4.0851 C   0  0  0  0  0  0  0  0  0  0  0  0
  -16.7760   -6.0324   -4.2619 C   0  0  0  0  0  0  0  0  0  0  0  0
  -17.0602   -5.5123   -5.5074 C   0  0  0  0  0  0  0  0  0  0  0  0
  -16.3005   -5.9557   -6.5706 C   0  0  0  0  0  0  0  0  0  0  0  0
  -15.2908   -6.8846   -6.4100 C   0  0  0  0  0  0  0  0  0  0  0  0
  -15.0081   -7.4045   -5.1601 C   0  0  0  0  0  0  0  0  0  0  0  0
  -13.9417   -8.3976   -4.9320 C   0  0  0  0  0  0  0  0  0  0  0  0
  -19.1343   -5.5682   -0.1322 C   0  0  0  0  0  0  0  0  0  0  0  0
  -23.1223   -8.1168    1.3519 H   0  0  0  0  0  0  0  0  0  0  0  0
  -21.9930   -8.9727    0.2753 H   0  0  0  0  0  0  0  0  0  0  0  0
  -21.3673   -7.9745    1.6101 H   0  0  0  0  0  0  0  0  0  0  0  0
  -23.0073   -6.9066   -0.6785 H   0  0  0  0  0  0  0  0  0  0  0  0
  -21.2034   -6.9116   -0.6481 H   0  0  0  0  0  0  0  0  0  0  0  0
  -19.3911   -3.3803    2.3620 H   0  0  0  0  0  0  0  0  0  0  0  0
  -16.9813   -3.3929    2.0975 H   0  0  0  0  0  0  0  0  0  0  0  0
  -15.8870   -4.7957    0.4000 H   0  0  0  0  0  0  0  0  0  0  0  0
  -16.0571   -8.4213   -2.6363 H   0  0  0  0  0  0  0  0  0  0  0  0
  -14.4005   -7.7091   -2.6889 H   0  0  0  0  0  0  0  0  0  0  0  0
  -17.3569   -5.7038   -3.4001 H   0  0  0  0  0  0  0  0  0  0  0  0
  -17.8546   -4.7790   -5.6465 H   0  0  0  0  0  0  0  0  0  0  0  0
  -16.5031   -5.5614   -7.5664 H   0  0  0  0  0  0  0  0  0  0  0  0
  -14.7126   -7.2102   -7.2748 H   0  0  0  0  0  0  0  0  0  0  0  0
  -13.0718   -7.9030   -4.4999 H   0  0  0  0  0  0  0  0  0  0  0  0
  -14.3001   -9.1655   -4.2465 H   0  0  0  0  0  0  0  0  0  0  0  0
  -13.6637   -8.8574   -5.8804 H   0  0  0  0  0  0  0  0  0  0  0  0
  -19.7424   -6.1997   -0.7799 H   0  0  0  0  0  0  0  0  0  0  0  0
  -17.8716   -6.9646   -1.8608 N   0  0  0  0  0  0  0  0  0  0  0  0
  -19.1586   -7.0299   -1.1772 C   0  0  0  0  0  0  0  0  0  0  0  0
  -17.4792   -7.8908   -1.9728 H   0  0  0  0  0  0  0  0  0  0  0  0
  -19.0204   -7.4918   -0.1994 H   0  0  0  0  0  0  0  0  0  0  0  0
  -19.8495   -7.6256   -1.7738 H   0  0  0  0  0  0  0  0  0  0  0  0
  -19.5499   -6.0194   -1.0578 H   0  0  0  0  0  0  0  0  0  0  0  0
  1  2  1  0
  2  3  1  0
  3  4  1  0
  4  5  2  0
  5  6  1  0
  6  7  2  0
  7  8  1  0
  8  9  2  0
  9 10  1  0
 10 11  2  0
 11 12  1  0
 12 13  1  0
 13 14  1  0
 14 15  2  0
 14 16  1  0
 16 17  1  0
 17 18  2  0
 18 19  1  0
 19 20  2  0
 20 21  1  0
 21 22  2  0
 22 23  1  0
 12 24  2  0
  3  7  1  0
  8 24  1  0
 17 22  1  0
  1 25  1  0
  1 26  1  0
  1 27  1  0
  2 28  1  0
  2 29  1  0
  9 30  1  0
 10 31  1  0
 11 32  1  0
 16 33  1  0
 16 34  1  0
 18 35  1  0
 19 36  1  0
 20 37  1  0
 21 38  1  0
 23 39  1  0
 23 40  1  0
 23 41  1  0
 24 42  1  0
 43 44  1  0
 43 45  1  0
 44 46  1  0
 44 47  1  0
 44 48  1  0
 13 43  1  0
M  END
>  <CHROM.1>  (70) 
-82.47700389,-160.56280652,0.18469452,74.79529170,-26.30661146,-18.34912369
-5.88734929,-1.34336050,2.37430369,0.07690764,1.19127423

>  <Name>  (70) 
design_0

>  <RI>  (70) 
12445400.000000

>  <Rbt.Current_Directory>  (70) 
/pylon5/mc5pksp/smaltr/gateway_workdirs/PROCESS_93251df5-8da2-4fa9-b874-71853b29d1ad

>  <Rbt.Executable>  (70) 
rbdock ($Id: //depot/dev/client3/rdock/2013.1/src/exe/rbdock.cxx#4 $)

>  <Rbt.Library>  (70) 
libRbt.so (2013.1, Build901 2013/11/27)

>  <Rbt.Parameter_File>  (70) 
/home/smaltr/software/rDock_2013.1_src//data/scripts/dock.prm

>  <Rbt.Receptor>  (70) 
/pylon5/mc5pksp/smaltr/gateway_workdirs/PROCESS_93251df5-8da2-4fa9-b874-71853b29d1ad/output/SnD-Target-Sep02/cavity/pocket_docking.prm

>  <SCORE>  (70) 
-19.693700

>  <SCORE.INTER>  (70) 
-19.878300

>  <SCORE.INTER.CONST>  (70) 
1

>  <SCORE.INTER.POLAR>  (70) 
-1.998350

>  <SCORE.INTER.REPUL>  (70) 
0

>  <SCORE.INTER.ROT>  (70) 
5

>  <SCORE.INTER.VDW>  (70) 
-23.483900

>  <SCORE.INTER.norm>  (70) 
-0.828262

>  <SCORE.INTRA>  (70) 
0.184616

>  <SCORE.INTRA.DIHEDRAL>  (70) 
0.686223

>  <SCORE.INTRA.DIHEDRAL.0>  (70) 
5.116130

>  <SCORE.INTRA.POLAR>  (70) 
0

>  <SCORE.INTRA.POLAR.0>  (70) 
0

>  <SCORE.INTRA.REPUL>  (70) 
0

>  <SCORE.INTRA.REPUL.0>  (70) 
0

>  <SCORE.INTRA.VDW>  (70) 
-0.158495

>  <SCORE.INTRA.VDW.0>  (70) 
-1.233420

>  <SCORE.INTRA.norm>  (70) 
0.007692

>  <SCORE.RESTR>  (70) 
0

>  <SCORE.RESTR.CAVITY>  (70) 
0

>  <SCORE.RESTR.norm>  (70) 
0

>  <SCORE.SYSTEM>  (70) 
0

>  <SCORE.SYSTEM.CONST>  (70) 
0

>  <SCORE.SYSTEM.DIHEDRAL>  (70) 
0

>  <SCORE.SYSTEM.norm>  (70) 
0

>  <SCORE.heavy>  (70) 
24

>  <SCORE.norm>  (70) 
-0.820569

>  <SMILES>  (70) 
CCn1nnnc1-c1cccc(NC(=O)Cc2ccccc2C)c1

>  <Cycle>  (70) 
228

>  <MolWeight>  (70) 
321.384000

>  <LogP>  (70) 
2.849620

>  <QED>  (70) 
0.784063

>  <SAS>  (70) 
1.093467482353816

$$$$
design_10
     RDKit          3D

 57 60  0  0  0  0  0  0  0  0999 V2000
   -9.2400   -6.6781   -5.6467 C   0  0  0  0  0  0  0  0  0  0  0  0
  -10.1048   -7.7630   -5.0642 C   0  0  0  0  0  0  0  0  0  0  0  0
  -10.6308   -7.3563   -3.7722 N   0  0  0  0  0  0  0  0  0  0  0  0
   -9.8244   -7.0657   -2.7098 N   0  0  0  0  0  0  0  0  0  0  0  0
  -10.6201   -6.7056   -1.7399 N   0  0  0  0  0  0  0  0  0  0  0  0
  -11.8607   -6.7621   -2.1537 N   0  0  0  0  0  0  0  0  0  0  0  0
  -11.8956   -7.1814   -3.4656 C   0  0  0  0  0  0  0  0  0  0  0  0
  -13.1555   -7.2885   -4.1713 C   0  0  0  0  0  0  0  0  0  0  0  0
  -13.2828   -7.5892   -5.4990 C   0  0  0  0  0  0  0  0  0  0  0  0
  -14.5493   -7.6094   -6.1094 C   0  0  0  0  0  0  0  0  0  0  0  0
  -15.6865   -7.3278   -5.3814 C   0  0  0  0  0  0  0  0  0  0  0  0
  -15.5955   -7.0228   -4.0448 C   0  0  0  0  0  0  0  0  0  0  0  0
  -16.7974   -6.7096   -3.2446 C   0  0  0  0  0  0  0  0  0  0  0  0
  -17.9344   -6.9735   -3.7168 O   0  0  0  0  0  0  0  0  0  0  0  0
  -16.7085   -6.1244   -1.9683 N   0  0  0  0  0  0  0  0  0  0  0  0
  -17.8981   -5.8284   -1.2131 C   0  0  0  0  0  0  0  0  0  0  0  0
  -17.5076   -4.9830   -0.0668 C   0  0  0  0  0  0  0  0  0  0  0  0
  -16.6531   -5.4354    0.9114 C   0  0  0  0  0  0  0  0  0  0  0  0
  -16.3324   -4.5918    1.9602 C   0  0  0  0  0  0  0  0  0  0  0  0
  -16.8369   -3.3125    2.0635 C   0  0  0  0  0  0  0  0  0  0  0  0
  -17.7024   -2.8709    1.0611 C   0  0  0  0  0  0  0  0  0  0  0  0
  -18.2639   -1.4914    1.1462 C   0  0  0  0  0  0  0  0  0  0  0  0
  -18.0268   -3.7102    0.0098 C   0  0  0  0  0  0  0  0  0  0  0  0
  -14.3524   -7.0094   -3.4743 C   0  0  0  0  0  0  0  0  0  0  0  0
   -8.2815   -7.1008   -5.9479 H   0  0  0  0  0  0  0  0  0  0  0  0
   -9.7350   -6.2456   -6.5162 H   0  0  0  0  0  0  0  0  0  0  0  0
   -9.0755   -5.9028   -4.8984 H   0  0  0  0  0  0  0  0  0  0  0  0
   -9.5016   -8.6612   -4.9319 H   0  0  0  0  0  0  0  0  0  0  0  0
  -10.9339   -7.9646   -5.7424 H   0  0  0  0  0  0  0  0  0  0  0  0
  -12.3948   -7.8152   -6.0894 H   0  0  0  0  0  0  0  0  0  0  0  0
  -16.6614   -7.3473   -5.8685 H   0  0  0  0  0  0  0  0  0  0  0  0
  -15.8019   -5.9100   -1.5782 H   0  0  0  0  0  0  0  0  0  0  0  0
  -18.3659   -6.7491   -0.8644 H   0  0  0  0  0  0  0  0  0  0  0  0
  -18.6134   -5.2963   -1.8403 H   0  0  0  0  0  0  0  0  0  0  0  0
  -16.2358   -6.4411    0.8613 H   0  0  0  0  0  0  0  0  0  0  0  0
  -15.6551   -4.9522    2.7344 H   0  0  0  0  0  0  0  0  0  0  0  0
  -16.5687   -2.6674    2.9002 H   0  0  0  0  0  0  0  0  0  0  0  0
  -19.2299   -1.5234    1.6502 H   0  0  0  0  0  0  0  0  0  0  0  0
  -17.5816   -0.8549    1.7097 H   0  0  0  0  0  0  0  0  0  0  0  0
  -18.3920   -1.0880    0.1417 H   0  0  0  0  0  0  0  0  0  0  0  0
  -18.7033   -3.3584   -0.7691 H   0  0  0  0  0  0  0  0  0  0  0  0
  -14.2805   -6.7679   -2.4138 H   0  0  0  0  0  0  0  0  0  0  0  0
  -14.8515   -8.4664   -9.8824 C   0  0  0  0  0  0  0  0  0  0  0  0
  -13.7206   -8.8544   -9.1533 C   0  0  0  0  0  0  0  0  0  0  0  0
  -13.6161   -8.5462   -7.8029 C   0  0  0  0  0  0  0  0  0  0  0  0
  -14.6330   -7.8493   -7.1651 C   0  0  0  0  0  0  0  0  0  0  0  0
  -15.7568   -7.4602   -7.8774 C   0  0  0  0  0  0  0  0  0  0  0  0
  -15.8657   -7.7671   -9.2275 C   0  0  0  0  0  0  0  0  0  0  0  0
  -15.0105   -8.7697  -11.3190 C   0  0  0  0  0  0  0  0  0  0  0  0
  -14.0273   -9.4389  -11.9123 N   0  0  0  0  0  0  0  0  0  0  0  0
  -15.9801   -8.4456  -11.9838 O   0  0  0  0  0  0  0  0  0  0  0  0
  -12.9047   -9.3976   -9.6069 H   0  0  0  0  0  0  0  0  0  0  0  0
  -12.7409   -8.8480   -7.2440 H   0  0  0  0  0  0  0  0  0  0  0  0
  -16.5508   -6.9180   -7.3833 H   0  0  0  0  0  0  0  0  0  0  0  0
  -16.7496   -7.4559   -9.7691 H   0  0  0  0  0  0  0  0  0  0  0  0
  -13.1991   -9.7465  -11.4596 H   0  0  0  0  0  0  0  0  0  0  0  0
  -14.2238   -9.5959  -12.8768 H   0  0  0  0  0  0  0  0  0  0  0  0
  1  2  1  0
  2  3  1  0
  3  4  1  0
  4  5  2  0
  5  6  1  0
  6  7  2  0
  7  8  1  0
  8  9  2  0
  9 10  1  0
 10 11  2  0
 11 12  1  0
 12 13  1  0
 13 14  2  0
 13 15  1  0
 15 16  1  0
 16 17  1  0
 17 18  2  0
 18 19  1  0
 19 20  2  0
 20 21  1  0
 21 22  1  0
 21 23  2  0
 12 24  2  0
  3  7  1  0
  8 24  1  0
 17 23  1  0
  1 25  1  0
  1 26  1  0
  1 27  1  0
  2 28  1  0
  2 29  1  0
  9 30  1  0
 11 31  1  0
 15 32  1  0
 16 33  1  0
 16 34  1  0
 18 35  1  0
 19 36  1  0
 20 37  1  0
 22 38  1  0
 22 39  1  0
 22 40  1  0
 23 41  1  0
 24 42  1  0
 43 44  2  0
 43 48  1  0
 43 49  1  0
 44 45  1  0
 44 52  1  0
 45 46  2  0
 45 53  1  0
 46 47  1  0
 47 48  2  0
 47 54  1  0
 48 55  1  0
 49 50  1  0
 49 51  2  0
 50 56  1  0
 50 57  1  0
 10 46  1  0
M  END
>  <CHROM.1>  (71) 
-61.21881374,-2.92414870,13.81509078,-168.53354661,-62.78859739,-14.60626922
-6.05811051,-2.36166533,-0.75171827,-0.07503907,1.05483303

>  <Name>  (71) 
design_10

>  <RI>  (71) 
37398200.000000

>  <Rbt.Current_Directory>  (71) 
/pylon5/mc5pksp/smaltr/gateway_workdirs/PROCESS_93251df5-8da2-4fa9-b874-71853b29d1ad

>  <Rbt.Executable>  (71) 
rbdock ($Id: //depot/dev/client3/rdock/2013.1/src/exe/rbdock.cxx#4 $)

>  <Rbt.Library>  (71) 
libRbt.so (2013.1, Build901 2013/11/27)

>  <Rbt.Parameter_File>  (71) 
/home/smaltr/software/rDock_2013.1_src//data/scripts/dock.prm

>  <Rbt.Receptor>  (71) 
/pylon5/mc5pksp/smaltr/gateway_workdirs/PROCESS_93251df5-8da2-4fa9-b874-71853b29d1ad/output/SnD-Target-Sep02/cavity/pocket_docking.prm

>  <SCORE>  (71) 
-18.959500

>  <SCORE.INTER>  (71) 
-19.705700

>  <SCORE.INTER.CONST>  (71) 
1

>  <SCORE.INTER.POLAR>  (71) 
-2.008240

>  <SCORE.INTER.REPUL>  (71) 
0

>  <SCORE.INTER.ROT>  (71) 
5

>  <SCORE.INTER.VDW>  (71) 
-23.277600

>  <SCORE.INTER.norm>  (71) 
-0.821069

>  <SCORE.INTRA>  (71) 
0.746124

>  <SCORE.INTRA.DIHEDRAL>  (71) 
-0.309032

>  <SCORE.INTRA.DIHEDRAL.0>  (71) 
5.396800

>  <SCORE.INTRA.POLAR>  (71) 
0

>  <SCORE.INTRA.POLAR.0>  (71) 
0

>  <SCORE.INTRA.REPUL>  (71) 
0

>  <SCORE.INTRA.REPUL.0>  (71) 
0

>  <SCORE.INTRA.VDW>  (71) 
0.900640

>  <SCORE.INTRA.VDW.0>  (71) 
-1.932270

>  <SCORE.INTRA.norm>  (71) 
0.031089

>  <SCORE.RESTR>  (71) 
0

>  <SCORE.RESTR.CAVITY>  (71) 
0

>  <SCORE.RESTR.norm>  (71) 
0

>  <SCORE.SYSTEM>  (71) 
0

>  <SCORE.SYSTEM.CONST>  (71) 
0

>  <SCORE.SYSTEM.DIHEDRAL>  (71) 
0

>  <SCORE.SYSTEM.norm>  (71) 
0

>  <SCORE.heavy>  (71) 
24

>  <SCORE.norm>  (71) 
-0.789980

>  <SMILES>  (71) 
CCn1nnnc1-c1cccc(C(=O)NCc2cccc(C)c2)c1

>  <Cycle>  (71) 
228

>  <MolWeight>  (71) 
321.384000

>  <LogP>  (71) 
2.598420

>  <QED>  (71) 
0.783778

>  <SAS>  (71) 
1.9398127787251171

$$$$
design_10
     RDKit          3D

 57 60  0  0  0  0  0  0  0  0999 V2000
   -9.2400   -6.6781   -5.6467 C   0  0  0  0  0  0  0  0  0  0  0  0
  -10.1048   -7.7630   -5.0642 C   0  0  0  0  0  0  0  0  0  0  0  0
  -10.6308   -7.3563   -3.7722 N   0  0  0  0  0  0  0  0  0  0  0  0
   -9.8244   -7.0657   -2.7098 N   0  0  0  0  0  0  0  0  0  0  0  0
  -10.6201   -6.7056   -1.7399 N   0  0  0  0  0  0  0  0  0  0  0  0
  -11.8607   -6.7621   -2.1537 N   0  0  0  0  0  0  0  0  0  0  0  0
  -11.8956   -7.1814   -3.4656 C   0  0  0  0  0  0  0  0  0  0  0  0
  -13.1555   -7.2885   -4.1713 C   0  0  0  0  0  0  0  0  0  0  0  0
  -13.2828   -7.5892   -5.4990 C   0  0  0  0  0  0  0  0  0  0  0  0
  -14.5493   -7.6094   -6.1094 C   0  0  0  0  0  0  0  0  0  0  0  0
  -15.6865   -7.3278   -5.3814 C   0  0  0  0  0  0  0  0  0  0  0  0
  -15.5955   -7.0228   -4.0448 C   0  0  0  0  0  0  0  0  0  0  0  0
  -16.7974   -6.7096   -3.2446 C   0  0  0  0  0  0  0  0  0  0  0  0
  -17.9344   -6.9735   -3.7168 O   0  0  0  0  0  0  0  0  0  0  0  0
  -16.7085   -6.1244   -1.9683 N   0  0  0  0  0  0  0  0  0  0  0  0
  -17.8981   -5.8284   -1.2131 C   0  0  0  0  0  0  0  0  0  0  0  0
  -17.5076   -4.9830   -0.0668 C   0  0  0  0  0  0  0  0  0  0  0  0
  -16.6531   -5.4354    0.9114 C   0  0  0  0  0  0  0  0  0  0  0  0
  -16.3324   -4.5918    1.9602 C   0  0  0  0  0  0  0  0  0  0  0  0
  -16.8369   -3.3125    2.0635 C   0  0  0  0  0  0  0  0  0  0  0  0
  -17.7024   -2.8709    1.0611 C   0  0  0  0  0  0  0  0  0  0  0  0
  -18.2639   -1.4914    1.1462 C   0  0  0  0  0  0  0  0  0  0  0  0
  -18.0268   -3.7102    0.0098 C   0  0  0  0  0  0  0  0  0  0  0  0
  -14.3524   -7.0094   -3.4743 C   0  0  0  0  0  0  0  0  0  0  0  0
   -8.2815   -7.1008   -5.9479 H   0  0  0  0  0  0  0  0  0  0  0  0
   -9.7350   -6.2456   -6.5162 H   0  0  0  0  0  0  0  0  0  0  0  0
   -9.0755   -5.9028   -4.8984 H   0  0  0  0  0  0  0  0  0  0  0  0
   -9.5016   -8.6612   -4.9319 H   0  0  0  0  0  0  0  0  0  0  0  0
  -10.9339   -7.9646   -5.7424 H   0  0  0  0  0  0  0  0  0  0  0  0
  -12.3948   -7.8152   -6.0894 H   0  0  0  0  0  0  0  0  0  0  0  0
  -16.6614   -7.3473   -5.8685 H   0  0  0  0  0  0  0  0  0  0  0  0
  -15.8019   -5.9100   -1.5782 H   0  0  0  0  0  0  0  0  0  0  0  0
  -18.3659   -6.7491   -0.8644 H   0  0  0  0  0  0  0  0  0  0  0  0
  -18.6134   -5.2963   -1.8403 H   0  0  0  0  0  0  0  0  0  0  0  0
  -16.2358   -6.4411    0.8613 H   0  0  0  0  0  0  0  0  0  0  0  0
  -15.6551   -4.9522    2.7344 H   0  0  0  0  0  0  0  0  0  0  0  0
  -16.5687   -2.6674    2.9002 H   0  0  0  0  0  0  0  0  0  0  0  0
  -19.2299   -1.5234    1.6502 H   0  0  0  0  0  0  0  0  0  0  0  0
  -17.5816   -0.8549    1.7097 H   0  0  0  0  0  0  0  0  0  0  0  0
  -18.3920   -1.0880    0.1417 H   0  0  0  0  0  0  0  0  0  0  0  0
  -18.7033   -3.3584   -0.7691 H   0  0  0  0  0  0  0  0  0  0  0  0
  -14.2805   -6.7679   -2.4138 H   0  0  0  0  0  0  0  0  0  0  0  0
  -15.9954   -8.3874   -9.0914 C   0  0  0  0  0  0  0  0  0  0  0  0
  -15.8810   -8.0778   -7.7305 C   0  0  0  0  0  0  0  0  0  0  0  0
  -14.6330   -7.8492   -7.1650 C   0  0  0  0  0  0  0  0  0  0  0  0
  -13.4879   -7.9273   -7.9455 C   0  0  0  0  0  0  0  0  0  0  0  0
  -13.5898   -8.2333   -9.2938 C   0  0  0  0  0  0  0  0  0  0  0  0
  -14.8356   -8.4616   -9.8633 C   0  0  0  0  0  0  0  0  0  0  0  0
  -17.2982   -8.6387   -9.7400 C   0  0  0  0  0  0  0  0  0  0  0  0
  -18.3836   -8.5581   -8.9771 N   0  0  0  0  0  0  0  0  0  0  0  0
  -17.4337   -8.9121  -10.9207 O   0  0  0  0  0  0  0  0  0  0  0  0
  -16.7434   -8.0064   -7.0843 H   0  0  0  0  0  0  0  0  0  0  0  0
  -12.5171   -7.7491   -7.5032 H   0  0  0  0  0  0  0  0  0  0  0  0
  -12.6999   -8.2941   -9.9045 H   0  0  0  0  0  0  0  0  0  0  0  0
  -14.8977   -8.6995  -10.9174 H   0  0  0  0  0  0  0  0  0  0  0  0
  -18.3789   -8.3425   -8.0081 H   0  0  0  0  0  0  0  0  0  0  0  0
  -19.2114   -8.7427   -9.5007 H   0  0  0  0  0  0  0  0  0  0  0  0
  1  2  1  0
  2  3  1  0
  3  4  1  0
  4  5  2  0
  5  6  1  0
  6  7  2  0
  7  8  1  0
  8  9  2  0
  9 10  1  0
 10 11  2  0
 11 12  1  0
 12 13  1  0
 13 14  2  0
 13 15  1  0
 15 16  1  0
 16 17  1  0
 17 18  2  0
 18 19  1  0
 19 20  2  0
 20 21  1  0
 21 22  1  0
 21 23  2  0
 12 24  2  0
  3  7  1  0
  8 24  1  0
 17 23  1  0
  1 25  1  0
  1 26  1  0
  1 27  1  0
  2 28  1  0
  2 29  1  0
  9 30  1  0
 11 31  1  0
 15 32  1  0
 16 33  1  0
 16 34  1  0
 18 35  1  0
 19 36  1  0
 20 37  1  0
 22 38  1  0
 22 39  1  0
 22 40  1  0
 23 41  1  0
 24 42  1  0
 43 44  2  0
 43 48  1  0
 43 49  1  0
 44 45  1  0
 44 52  1  0
 45 46  2  0
 46 47  1  0
 46 53  1  0
 47 48  2  0
 47 54  1  0
 48 55  1  0
 49 50  1  0
 49 51  2  0
 50 56  1  0
 50 57  1  0
 10 45  1  0
M  END
>  <CHROM.1>  (72) 
-61.21881374,-2.92414870,13.81509078,-168.53354661,-62.78859739,-14.60626922
-6.05811051,-2.36166533,-0.75171827,-0.07503907,1.05483303

>  <Name>  (72) 
design_10

>  <RI>  (72) 
37398200.000000

>  <Rbt.Current_Directory>  (72) 
/pylon5/mc5pksp/smaltr/gateway_workdirs/PROCESS_93251df5-8da2-4fa9-b874-71853b29d1ad

>  <Rbt.Executable>  (72) 
rbdock ($Id: //depot/dev/client3/rdock/2013.1/src/exe/rbdock.cxx#4 $)

>  <Rbt.Library>  (72) 
libRbt.so (2013.1, Build901 2013/11/27)

>  <Rbt.Parameter_File>  (72) 
/home/smaltr/software/rDock_2013.1_src//data/scripts/dock.prm

>  <Rbt.Receptor>  (72) 
/pylon5/mc5pksp/smaltr/gateway_workdirs/PROCESS_93251df5-8da2-4fa9-b874-71853b29d1ad/output/SnD-Target-Sep02/cavity/pocket_docking.prm

>  <SCORE>  (72) 
-18.959500

>  <SCORE.INTER>  (72) 
-19.705700

>  <SCORE.INTER.CONST>  (72) 
1

>  <SCORE.INTER.POLAR>  (72) 
-2.008240

>  <SCORE.INTER.REPUL>  (72) 
0

>  <SCORE.INTER.ROT>  (72) 
5

>  <SCORE.INTER.VDW>  (72) 
-23.277600

>  <SCORE.INTER.norm>  (72) 
-0.821069

>  <SCORE.INTRA>  (72) 
0.746124

>  <SCORE.INTRA.DIHEDRAL>  (72) 
-0.309032

>  <SCORE.INTRA.DIHEDRAL.0>  (72) 
5.396800

>  <SCORE.INTRA.POLAR>  (72) 
0

>  <SCORE.INTRA.POLAR.0>  (72) 
0

>  <SCORE.INTRA.REPUL>  (72) 
0

>  <SCORE.INTRA.REPUL.0>  (72) 
0

>  <SCORE.INTRA.VDW>  (72) 
0.900640

>  <SCORE.INTRA.VDW.0>  (72) 
-1.932270

>  <SCORE.INTRA.norm>  (72) 
0.031089

>  <SCORE.RESTR>  (72) 
0

>  <SCORE.RESTR.CAVITY>  (72) 
0

>  <SCORE.RESTR.norm>  (72) 
0

>  <SCORE.SYSTEM>  (72) 
0

>  <SCORE.SYSTEM.CONST>  (72) 
0

>  <SCORE.SYSTEM.DIHEDRAL>  (72) 
0

>  <SCORE.SYSTEM.norm>  (72) 
0

>  <SCORE.heavy>  (72) 
24

>  <SCORE.norm>  (72) 
-0.789980

>  <SMILES>  (72) 
CCn1nnnc1-c1cccc(C(=O)NCc2cccc(C)c2)c1

>  <Cycle>  (72) 
228

>  <MolWeight>  (72) 
321.384000

>  <LogP>  (72) 
2.598420

>  <QED>  (72) 
0.783778

>  <SAS>  (72) 
1.9398127787251171

$$$$
design_10
     RDKit          3D

 57 60  0  0  0  0  0  0  0  0999 V2000
   -9.2400   -6.6781   -5.6467 C   0  0  0  0  0  0  0  0  0  0  0  0
  -10.1048   -7.7630   -5.0642 C   0  0  0  0  0  0  0  0  0  0  0  0
  -10.6308   -7.3563   -3.7722 N   0  0  0  0  0  0  0  0  0  0  0  0
   -9.8244   -7.0657   -2.7098 N   0  0  0  0  0  0  0  0  0  0  0  0
  -10.6201   -6.7056   -1.7399 N   0  0  0  0  0  0  0  0  0  0  0  0
  -11.8607   -6.7621   -2.1537 N   0  0  0  0  0  0  0  0  0  0  0  0
  -11.8956   -7.1814   -3.4656 C   0  0  0  0  0  0  0  0  0  0  0  0
  -13.1555   -7.2885   -4.1713 C   0  0  0  0  0  0  0  0  0  0  0  0
  -13.2828   -7.5892   -5.4990 C   0  0  0  0  0  0  0  0  0  0  0  0
  -14.5493   -7.6094   -6.1094 C   0  0  0  0  0  0  0  0  0  0  0  0
  -15.6865   -7.3278   -5.3814 C   0  0  0  0  0  0  0  0  0  0  0  0
  -15.5955   -7.0228   -4.0448 C   0  0  0  0  0  0  0  0  0  0  0  0
  -16.7974   -6.7096   -3.2446 C   0  0  0  0  0  0  0  0  0  0  0  0
  -17.9344   -6.9735   -3.7168 O   0  0  0  0  0  0  0  0  0  0  0  0
  -16.7085   -6.1244   -1.9683 N   0  0  0  0  0  0  0  0  0  0  0  0
  -17.8981   -5.8284   -1.2131 C   0  0  0  0  0  0  0  0  0  0  0  0
  -17.5076   -4.9830   -0.0668 C   0  0  0  0  0  0  0  0  0  0  0  0
  -16.6531   -5.4354    0.9114 C   0  0  0  0  0  0  0  0  0  0  0  0
  -16.3324   -4.5918    1.9602 C   0  0  0  0  0  0  0  0  0  0  0  0
  -16.8369   -3.3125    2.0635 C   0  0  0  0  0  0  0  0  0  0  0  0
  -17.7024   -2.8709    1.0611 C   0  0  0  0  0  0  0  0  0  0  0  0
  -18.2639   -1.4914    1.1462 C   0  0  0  0  0  0  0  0  0  0  0  0
  -18.0268   -3.7102    0.0098 C   0  0  0  0  0  0  0  0  0  0  0  0
  -14.3524   -7.0094   -3.4743 C   0  0  0  0  0  0  0  0  0  0  0  0
   -8.2815   -7.1008   -5.9479 H   0  0  0  0  0  0  0  0  0  0  0  0
   -9.7350   -6.2456   -6.5162 H   0  0  0  0  0  0  0  0  0  0  0  0
   -9.0755   -5.9028   -4.8984 H   0  0  0  0  0  0  0  0  0  0  0  0
   -9.5016   -8.6612   -4.9319 H   0  0  0  0  0  0  0  0  0  0  0  0
  -10.9339   -7.9646   -5.7424 H   0  0  0  0  0  0  0  0  0  0  0  0
  -14.6333   -7.8502   -7.1692 H   0  0  0  0  0  0  0  0  0  0  0  0
  -16.6614   -7.3473   -5.8685 H   0  0  0  0  0  0  0  0  0  0  0  0
  -15.8019   -5.9100   -1.5782 H   0  0  0  0  0  0  0  0  0  0  0  0
  -18.3659   -6.7491   -0.8644 H   0  0  0  0  0  0  0  0  0  0  0  0
  -18.6134   -5.2963   -1.8403 H   0  0  0  0  0  0  0  0  0  0  0  0
  -16.2358   -6.4411    0.8613 H   0  0  0  0  0  0  0  0  0  0  0  0
  -15.6551   -4.9522    2.7344 H   0  0  0  0  0  0  0  0  0  0  0  0
  -16.5687   -2.6674    2.9002 H   0  0  0  0  0  0  0  0  0  0  0  0
  -19.2299   -1.5234    1.6502 H   0  0  0  0  0  0  0  0  0  0  0  0
  -17.5816   -0.8549    1.7097 H   0  0  0  0  0  0  0  0  0  0  0  0
  -18.3920   -1.0880    0.1417 H   0  0  0  0  0  0  0  0  0  0  0  0
  -18.7033   -3.3584   -0.7691 H   0  0  0  0  0  0  0  0  0  0  0  0
  -14.2805   -6.7679   -2.4138 H   0  0  0  0  0  0  0  0  0  0  0  0
  -10.1196   -8.3917   -7.5994 C   0  0  0  0  0  0  0  0  0  0  0  0
  -11.3955   -8.6926   -8.0919 C   0  0  0  0  0  0  0  0  0  0  0  0
  -12.5255   -8.4035   -7.3374 C   0  0  0  0  0  0  0  0  0  0  0  0
  -12.3983   -7.8143   -6.0871 C   0  0  0  0  0  0  0  0  0  0  0  0
  -11.1399   -7.5125   -5.5899 C   0  0  0  0  0  0  0  0  0  0  0  0
  -10.0076   -7.7989   -6.3414 C   0  0  0  0  0  0  0  0  0  0  0  0
   -8.8879   -8.6788   -8.3620 C   0  0  0  0  0  0  0  0  0  0  0  0
   -9.0296   -9.2417   -9.5577 N   0  0  0  0  0  0  0  0  0  0  0  0
   -7.7624   -8.4318   -7.9628 O   0  0  0  0  0  0  0  0  0  0  0  0
  -11.5435   -9.1511   -9.0584 H   0  0  0  0  0  0  0  0  0  0  0  0
  -13.5087   -8.6376   -7.7220 H   0  0  0  0  0  0  0  0  0  0  0  0
  -11.0375   -7.0529   -4.6168 H   0  0  0  0  0  0  0  0  0  0  0  0
   -9.0326   -7.5570   -5.9385 H   0  0  0  0  0  0  0  0  0  0  0  0
   -9.9001   -9.4811   -9.9703 H   0  0  0  0  0  0  0  0  0  0  0  0
   -8.1471   -9.3965   -9.9942 H   0  0  0  0  0  0  0  0  0  0  0  0
  1  2  1  0
  2  3  1  0
  3  4  1  0
  4  5  2  0
  5  6  1  0
  6  7  2  0
  7  8  1  0
  8  9  1  0
  9 10  2  0
 10 11  1  0
 11 12  2  0
 12 13  1  0
 13 14  2  0
 13 15  1  0
 15 16  1  0
 16 17  1  0
 17 18  2  0
 18 19  1  0
 19 20  2  0
 20 21  1  0
 21 22  1  0
 21 23  2  0
 12 24  1  0
  3  7  1  0
  8 24  2  0
 17 23  1  0
  1 25  1  0
  1 26  1  0
  1 27  1  0
  2 28  1  0
  2 29  1  0
 10 30  1  0
 11 31  1  0
 15 32  1  0
 16 33  1  0
 16 34  1  0
 18 35  1  0
 19 36  1  0
 20 37  1  0
 22 38  1  0
 22 39  1  0
 22 40  1  0
 23 41  1  0
 24 42  1  0
 43 44  2  0
 43 48  1  0
 43 49  1  0
 44 45  1  0
 44 52  1  0
 45 46  2  0
 45 53  1  0
 46 47  1  0
 47 48  2  0
 47 54  1  0
 48 55  1  0
 49 50  1  0
 49 51  2  0
 50 56  1  0
 50 57  1  0
  9 46  1  0
M  END
>  <CHROM.1>  (73) 
-61.21881374,-2.92414870,13.81509078,-168.53354661,-62.78859739,-14.60626922
-6.05811051,-2.36166533,-0.75171827,-0.07503907,1.05483303

>  <Name>  (73) 
design_10

>  <RI>  (73) 
37398200.000000

>  <Rbt.Current_Directory>  (73) 
/pylon5/mc5pksp/smaltr/gateway_workdirs/PROCESS_93251df5-8da2-4fa9-b874-71853b29d1ad

>  <Rbt.Executable>  (73) 
rbdock ($Id: //depot/dev/client3/rdock/2013.1/src/exe/rbdock.cxx#4 $)

>  <Rbt.Library>  (73) 
libRbt.so (2013.1, Build901 2013/11/27)

>  <Rbt.Parameter_File>  (73) 
/home/smaltr/software/rDock_2013.1_src//data/scripts/dock.prm

>  <Rbt.Receptor>  (73) 
/pylon5/mc5pksp/smaltr/gateway_workdirs/PROCESS_93251df5-8da2-4fa9-b874-71853b29d1ad/output/SnD-Target-Sep02/cavity/pocket_docking.prm

>  <SCORE>  (73) 
-18.959500

>  <SCORE.INTER>  (73) 
-19.705700

>  <SCORE.INTER.CONST>  (73) 
1

>  <SCORE.INTER.POLAR>  (73) 
-2.008240

>  <SCORE.INTER.REPUL>  (73) 
0

>  <SCORE.INTER.ROT>  (73) 
5

>  <SCORE.INTER.VDW>  (73) 
-23.277600

>  <SCORE.INTER.norm>  (73) 
-0.821069

>  <SCORE.INTRA>  (73) 
0.746124

>  <SCORE.INTRA.DIHEDRAL>  (73) 
-0.309032

>  <SCORE.INTRA.DIHEDRAL.0>  (73) 
5.396800

>  <SCORE.INTRA.POLAR>  (73) 
0

>  <SCORE.INTRA.POLAR.0>  (73) 
0

>  <SCORE.INTRA.REPUL>  (73) 
0

>  <SCORE.INTRA.REPUL.0>  (73) 
0

>  <SCORE.INTRA.VDW>  (73) 
0.900640

>  <SCORE.INTRA.VDW.0>  (73) 
-1.932270

>  <SCORE.INTRA.norm>  (73) 
0.031089

>  <SCORE.RESTR>  (73) 
0

>  <SCORE.RESTR.CAVITY>  (73) 
0

>  <SCORE.RESTR.norm>  (73) 
0

>  <SCORE.SYSTEM>  (73) 
0

>  <SCORE.SYSTEM.CONST>  (73) 
0

>  <SCORE.SYSTEM.DIHEDRAL>  (73) 
0

>  <SCORE.SYSTEM.norm>  (73) 
0

>  <SCORE.heavy>  (73) 
24

>  <SCORE.norm>  (73) 
-0.789980

>  <SMILES>  (73) 
CCn1nnnc1-c1cccc(C(=O)NCc2cccc(C)c2)c1

>  <Cycle>  (73) 
228

>  <MolWeight>  (73) 
321.384000

>  <LogP>  (73) 
2.598420

>  <QED>  (73) 
0.783778

>  <SAS>  (73) 
1.9398127787251171

$$$$
design_10
     RDKit          3D

 57 60  0  0  0  0  0  0  0  0999 V2000
   -9.2400   -6.6781   -5.6467 C   0  0  0  0  0  0  0  0  0  0  0  0
  -10.1048   -7.7630   -5.0642 C   0  0  0  0  0  0  0  0  0  0  0  0
  -10.6308   -7.3563   -3.7722 N   0  0  0  0  0  0  0  0  0  0  0  0
   -9.8244   -7.0657   -2.7098 N   0  0  0  0  0  0  0  0  0  0  0  0
  -10.6201   -6.7056   -1.7399 N   0  0  0  0  0  0  0  0  0  0  0  0
  -11.8607   -6.7621   -2.1537 N   0  0  0  0  0  0  0  0  0  0  0  0
  -11.8956   -7.1814   -3.4656 C   0  0  0  0  0  0  0  0  0  0  0  0
  -13.1555   -7.2885   -4.1713 C   0  0  0  0  0  0  0  0  0  0  0  0
  -13.2828   -7.5892   -5.4990 C   0  0  0  0  0  0  0  0  0  0  0  0
  -14.5493   -7.6094   -6.1094 C   0  0  0  0  0  0  0  0  0  0  0  0
  -15.6865   -7.3278   -5.3814 C   0  0  0  0  0  0  0  0  0  0  0  0
  -15.5955   -7.0228   -4.0448 C   0  0  0  0  0  0  0  0  0  0  0  0
  -16.7974   -6.7096   -3.2446 C   0  0  0  0  0  0  0  0  0  0  0  0
  -17.9344   -6.9735   -3.7168 O   0  0  0  0  0  0  0  0  0  0  0  0
  -16.7085   -6.1244   -1.9683 N   0  0  0  0  0  0  0  0  0  0  0  0
  -17.8981   -5.8284   -1.2131 C   0  0  0  0  0  0  0  0  0  0  0  0
  -17.5076   -4.9830   -0.0668 C   0  0  0  0  0  0  0  0  0  0  0  0
  -16.6531   -5.4354    0.9114 C   0  0  0  0  0  0  0  0  0  0  0  0
  -16.3324   -4.5918    1.9602 C   0  0  0  0  0  0  0  0  0  0  0  0
  -16.8369   -3.3125    2.0635 C   0  0  0  0  0  0  0  0  0  0  0  0
  -17.7024   -2.8709    1.0611 C   0  0  0  0  0  0  0  0  0  0  0  0
  -18.2639   -1.4914    1.1462 C   0  0  0  0  0  0  0  0  0  0  0  0
  -18.0268   -3.7102    0.0098 C   0  0  0  0  0  0  0  0  0  0  0  0
  -14.3524   -7.0094   -3.4743 C   0  0  0  0  0  0  0  0  0  0  0  0
   -8.2815   -7.1008   -5.9479 H   0  0  0  0  0  0  0  0  0  0  0  0
   -9.7350   -6.2456   -6.5162 H   0  0  0  0  0  0  0  0  0  0  0  0
   -9.0755   -5.9028   -4.8984 H   0  0  0  0  0  0  0  0  0  0  0  0
   -9.5016   -8.6612   -4.9319 H   0  0  0  0  0  0  0  0  0  0  0  0
  -10.9339   -7.9646   -5.7424 H   0  0  0  0  0  0  0  0  0  0  0  0
  -14.6333   -7.8502   -7.1692 H   0  0  0  0  0  0  0  0  0  0  0  0
  -16.6614   -7.3473   -5.8685 H   0  0  0  0  0  0  0  0  0  0  0  0
  -15.8019   -5.9100   -1.5782 H   0  0  0  0  0  0  0  0  0  0  0  0
  -18.3659   -6.7491   -0.8644 H   0  0  0  0  0  0  0  0  0  0  0  0
  -18.6134   -5.2963   -1.8403 H   0  0  0  0  0  0  0  0  0  0  0  0
  -16.2358   -6.4411    0.8613 H   0  0  0  0  0  0  0  0  0  0  0  0
  -15.6551   -4.9522    2.7344 H   0  0  0  0  0  0  0  0  0  0  0  0
  -16.5687   -2.6674    2.9002 H   0  0  0  0  0  0  0  0  0  0  0  0
  -19.2299   -1.5234    1.6502 H   0  0  0  0  0  0  0  0  0  0  0  0
  -17.5816   -0.8549    1.7097 H   0  0  0  0  0  0  0  0  0  0  0  0
  -18.3920   -1.0880    0.1417 H   0  0  0  0  0  0  0  0  0  0  0  0
  -18.7033   -3.3584   -0.7691 H   0  0  0  0  0  0  0  0  0  0  0  0
  -14.2805   -6.7679   -2.4138 H   0  0  0  0  0  0  0  0  0  0  0  0
  -10.6500   -7.1022   -7.6015 C   0  0  0  0  0  0  0  0  0  0  0  0
  -11.7911   -6.8181   -6.8410 C   0  0  0  0  0  0  0  0  0  0  0  0
  -12.3983   -7.8143   -6.0870 C   0  0  0  0  0  0  0  0  0  0  0  0
  -11.8785   -9.1013   -6.0826 C   0  0  0  0  0  0  0  0  0  0  0  0
  -10.7494   -9.3934   -6.8319 C   0  0  0  0  0  0  0  0  0  0  0  0
  -10.1387   -8.4002   -7.5864 C   0  0  0  0  0  0  0  0  0  0  0  0
   -9.9679   -6.0789   -8.4192 C   0  0  0  0  0  0  0  0  0  0  0  0
  -10.4792   -4.8521   -8.4099 N   0  0  0  0  0  0  0  0  0  0  0  0
   -8.9746   -6.2922   -9.0937 O   0  0  0  0  0  0  0  0  0  0  0  0
  -12.2311   -5.8321   -6.8139 H   0  0  0  0  0  0  0  0  0  0  0  0
  -12.3528   -9.8755   -5.4948 H   0  0  0  0  0  0  0  0  0  0  0  0
  -10.3416  -10.3946   -6.8299 H   0  0  0  0  0  0  0  0  0  0  0  0
   -9.2580   -8.6449   -8.1659 H   0  0  0  0  0  0  0  0  0  0  0  0
  -11.2825   -4.5782   -7.8951 H   0  0  0  0  0  0  0  0  0  0  0  0
   -9.9534   -4.2340   -8.9887 H   0  0  0  0  0  0  0  0  0  0  0  0
  1  2  1  0
  2  3  1  0
  3  4  1  0
  4  5  2  0
  5  6  1  0
  6  7  2  0
  7  8  1  0
  8  9  1  0
  9 10  2  0
 10 11  1  0
 11 12  2  0
 12 13  1  0
 13 14  2  0
 13 15  1  0
 15 16  1  0
 16 17  1  0
 17 18  2  0
 18 19  1  0
 19 20  2  0
 20 21  1  0
 21 22  1  0
 21 23  2  0
 12 24  1  0
  3  7  1  0
  8 24  2  0
 17 23  1  0
  1 25  1  0
  1 26  1  0
  1 27  1  0
  2 28  1  0
  2 29  1  0
 10 30  1  0
 11 31  1  0
 15 32  1  0
 16 33  1  0
 16 34  1  0
 18 35  1  0
 19 36  1  0
 20 37  1  0
 22 38  1  0
 22 39  1  0
 22 40  1  0
 23 41  1  0
 24 42  1  0
 43 44  2  0
 43 48  1  0
 43 49  1  0
 44 45  1  0
 44 52  1  0
 45 46  2  0
 46 47  1  0
 46 53  1  0
 47 48  2  0
 47 54  1  0
 48 55  1  0
 49 50  1  0
 49 51  2  0
 50 56  1  0
 50 57  1  0
  9 45  1  0
M  END
>  <CHROM.1>  (74) 
-61.21881374,-2.92414870,13.81509078,-168.53354661,-62.78859739,-14.60626922
-6.05811051,-2.36166533,-0.75171827,-0.07503907,1.05483303

>  <Name>  (74) 
design_10

>  <RI>  (74) 
37398200.000000

>  <Rbt.Current_Directory>  (74) 
/pylon5/mc5pksp/smaltr/gateway_workdirs/PROCESS_93251df5-8da2-4fa9-b874-71853b29d1ad

>  <Rbt.Executable>  (74) 
rbdock ($Id: //depot/dev/client3/rdock/2013.1/src/exe/rbdock.cxx#4 $)

>  <Rbt.Library>  (74) 
libRbt.so (2013.1, Build901 2013/11/27)

>  <Rbt.Parameter_File>  (74) 
/home/smaltr/software/rDock_2013.1_src//data/scripts/dock.prm

>  <Rbt.Receptor>  (74) 
/pylon5/mc5pksp/smaltr/gateway_workdirs/PROCESS_93251df5-8da2-4fa9-b874-71853b29d1ad/output/SnD-Target-Sep02/cavity/pocket_docking.prm

>  <SCORE>  (74) 
-18.959500

>  <SCORE.INTER>  (74) 
-19.705700

>  <SCORE.INTER.CONST>  (74) 
1

>  <SCORE.INTER.POLAR>  (74) 
-2.008240

>  <SCORE.INTER.REPUL>  (74) 
0

>  <SCORE.INTER.ROT>  (74) 
5

>  <SCORE.INTER.VDW>  (74) 
-23.277600

>  <SCORE.INTER.norm>  (74) 
-0.821069

>  <SCORE.INTRA>  (74) 
0.746124

>  <SCORE.INTRA.DIHEDRAL>  (74) 
-0.309032

>  <SCORE.INTRA.DIHEDRAL.0>  (74) 
5.396800

>  <SCORE.INTRA.POLAR>  (74) 
0

>  <SCORE.INTRA.POLAR.0>  (74) 
0

>  <SCORE.INTRA.REPUL>  (74) 
0

>  <SCORE.INTRA.REPUL.0>  (74) 
0

>  <SCORE.INTRA.VDW>  (74) 
0.900640

>  <SCORE.INTRA.VDW.0>  (74) 
-1.932270

>  <SCORE.INTRA.norm>  (74) 
0.031089

>  <SCORE.RESTR>  (74) 
0

>  <SCORE.RESTR.CAVITY>  (74) 
0

>  <SCORE.RESTR.norm>  (74) 
0

>  <SCORE.SYSTEM>  (74) 
0

>  <SCORE.SYSTEM.CONST>  (74) 
0

>  <SCORE.SYSTEM.DIHEDRAL>  (74) 
0

>  <SCORE.SYSTEM.norm>  (74) 
0

>  <SCORE.heavy>  (74) 
24

>  <SCORE.norm>  (74) 
-0.789980

>  <SMILES>  (74) 
CCn1nnnc1-c1cccc(C(=O)NCc2cccc(C)c2)c1

>  <Cycle>  (74) 
228

>  <MolWeight>  (74) 
321.384000

>  <LogP>  (74) 
2.598420

>  <QED>  (74) 
0.783778

>  <SAS>  (74) 
1.9398127787251171

$$$$
design_10
     RDKit          3D

 57 60  0  0  0  0  0  0  0  0999 V2000
   -9.2400   -6.6781   -5.6467 C   0  0  0  0  0  0  0  0  0  0  0  0
  -10.1048   -7.7630   -5.0642 C   0  0  0  0  0  0  0  0  0  0  0  0
  -10.6308   -7.3563   -3.7722 N   0  0  0  0  0  0  0  0  0  0  0  0
   -9.8244   -7.0657   -2.7098 N   0  0  0  0  0  0  0  0  0  0  0  0
  -10.6201   -6.7056   -1.7399 N   0  0  0  0  0  0  0  0  0  0  0  0
  -11.8607   -6.7621   -2.1537 N   0  0  0  0  0  0  0  0  0  0  0  0
  -11.8956   -7.1814   -3.4656 C   0  0  0  0  0  0  0  0  0  0  0  0
  -13.1555   -7.2885   -4.1713 C   0  0  0  0  0  0  0  0  0  0  0  0
  -13.2828   -7.5892   -5.4990 C   0  0  0  0  0  0  0  0  0  0  0  0
  -14.5493   -7.6094   -6.1094 C   0  0  0  0  0  0  0  0  0  0  0  0
  -15.6865   -7.3278   -5.3814 C   0  0  0  0  0  0  0  0  0  0  0  0
  -15.5955   -7.0228   -4.0448 C   0  0  0  0  0  0  0  0  0  0  0  0
  -16.7974   -6.7096   -3.2446 C   0  0  0  0  0  0  0  0  0  0  0  0
  -17.9344   -6.9735   -3.7168 O   0  0  0  0  0  0  0  0  0  0  0  0
  -16.7085   -6.1244   -1.9683 N   0  0  0  0  0  0  0  0  0  0  0  0
  -17.8981   -5.8284   -1.2131 C   0  0  0  0  0  0  0  0  0  0  0  0
  -17.5076   -4.9830   -0.0668 C   0  0  0  0  0  0  0  0  0  0  0  0
  -16.6531   -5.4354    0.9114 C   0  0  0  0  0  0  0  0  0  0  0  0
  -16.3324   -4.5918    1.9602 C   0  0  0  0  0  0  0  0  0  0  0  0
  -16.8369   -3.3125    2.0635 C   0  0  0  0  0  0  0  0  0  0  0  0
  -17.7024   -2.8709    1.0611 C   0  0  0  0  0  0  0  0  0  0  0  0
  -18.2639   -1.4914    1.1462 C   0  0  0  0  0  0  0  0  0  0  0  0
  -18.0268   -3.7102    0.0098 C   0  0  0  0  0  0  0  0  0  0  0  0
  -14.3524   -7.0094   -3.4743 C   0  0  0  0  0  0  0  0  0  0  0  0
   -8.2815   -7.1008   -5.9479 H   0  0  0  0  0  0  0  0  0  0  0  0
   -9.7350   -6.2456   -6.5162 H   0  0  0  0  0  0  0  0  0  0  0  0
   -9.0755   -5.9028   -4.8984 H   0  0  0  0  0  0  0  0  0  0  0  0
   -9.5016   -8.6612   -4.9319 H   0  0  0  0  0  0  0  0  0  0  0  0
  -10.9339   -7.9646   -5.7424 H   0  0  0  0  0  0  0  0  0  0  0  0
  -12.3948   -7.8152   -6.0894 H   0  0  0  0  0  0  0  0  0  0  0  0
  -14.6333   -7.8502   -7.1692 H   0  0  0  0  0  0  0  0  0  0  0  0
  -16.6614   -7.3473   -5.8685 H   0  0  0  0  0  0  0  0  0  0  0  0
  -15.8019   -5.9100   -1.5782 H   0  0  0  0  0  0  0  0  0  0  0  0
  -18.3659   -6.7491   -0.8644 H   0  0  0  0  0  0  0  0  0  0  0  0
  -18.6134   -5.2963   -1.8403 H   0  0  0  0  0  0  0  0  0  0  0  0
  -16.2358   -6.4411    0.8613 H   0  0  0  0  0  0  0  0  0  0  0  0
  -15.6551   -4.9522    2.7344 H   0  0  0  0  0  0  0  0  0  0  0  0
  -16.5687   -2.6674    2.9002 H   0  0  0  0  0  0  0  0  0  0  0  0
  -19.2299   -1.5234    1.6502 H   0  0  0  0  0  0  0  0  0  0  0  0
  -17.5816   -0.8549    1.7097 H   0  0  0  0  0  0  0  0  0  0  0  0
  -18.3920   -1.0880    0.1417 H   0  0  0  0  0  0  0  0  0  0  0  0
  -18.7033   -3.3584   -0.7691 H   0  0  0  0  0  0  0  0  0  0  0  0
  -14.0989   -6.1477    0.3012 C   0  0  0  0  0  0  0  0  0  0  0  0
  -12.9824   -6.6261   -0.3956 C   0  0  0  0  0  0  0  0  0  0  0  0
  -13.0768   -6.9331   -1.7471 C   0  0  0  0  0  0  0  0  0  0  0  0
  -14.2808   -6.7688   -2.4179 C   0  0  0  0  0  0  0  0  0  0  0  0
  -15.3923   -6.2961   -1.7377 C   0  0  0  0  0  0  0  0  0  0  0  0
  -15.3020   -5.9871   -0.3867 C   0  0  0  0  0  0  0  0  0  0  0  0
  -14.0504   -5.8071    1.7374 C   0  0  0  0  0  0  0  0  0  0  0  0
  -12.8888   -5.9695    2.3626 N   0  0  0  0  0  0  0  0  0  0  0  0
  -15.0030   -5.3903    2.3746 O   0  0  0  0  0  0  0  0  0  0  0  0
  -12.0256   -6.7701    0.0842 H   0  0  0  0  0  0  0  0  0  0  0  0
  -12.2118   -7.3021   -2.2809 H   0  0  0  0  0  0  0  0  0  0  0  0
  -16.3312   -6.1663   -2.2575 H   0  0  0  0  0  0  0  0  0  0  0  0
  -16.1793   -5.6192    0.1296 H   0  0  0  0  0  0  0  0  0  0  0  0
  -12.0575   -6.3019    1.9338 H   0  0  0  0  0  0  0  0  0  0  0  0
  -12.9540   -5.7150    3.3241 H   0  0  0  0  0  0  0  0  0  0  0  0
  1  2  1  0
  2  3  1  0
  3  4  1  0
  4  5  2  0
  5  6  1  0
  6  7  2  0
  7  8  1  0
  8  9  2  0
  9 10  1  0
 10 11  2  0
 11 12  1  0
 12 13  1  0
 13 14  2  0
 13 15  1  0
 15 16  1  0
 16 17  1  0
 17 18  2  0
 18 19  1  0
 19 20  2  0
 20 21  1  0
 21 22  1  0
 21 23  2  0
 12 24  2  0
  3  7  1  0
  8 24  1  0
 17 23  1  0
  1 25  1  0
  1 26  1  0
  1 27  1  0
  2 28  1  0
  2 29  1  0
  9 30  1  0
 10 31  1  0
 11 32  1  0
 15 33  1  0
 16 34  1  0
 16 35  1  0
 18 36  1  0
 19 37  1  0
 20 38  1  0
 22 39  1  0
 22 40  1  0
 22 41  1  0
 23 42  1  0
 43 44  2  0
 43 48  1  0
 43 49  1  0
 44 45  1  0
 44 52  1  0
 45 46  2  0
 45 53  1  0
 46 47  1  0
 47 48  2  0
 47 54  1  0
 48 55  1  0
 49 50  1  0
 49 51  2  0
 50 56  1  0
 50 57  1  0
 24 46  1  0
M  END
>  <CHROM.1>  (75) 
-61.21881374,-2.92414870,13.81509078,-168.53354661,-62.78859739,-14.60626922
-6.05811051,-2.36166533,-0.75171827,-0.07503907,1.05483303

>  <Name>  (75) 
design_10

>  <RI>  (75) 
37398200.000000

>  <Rbt.Current_Directory>  (75) 
/pylon5/mc5pksp/smaltr/gateway_workdirs/PROCESS_93251df5-8da2-4fa9-b874-71853b29d1ad

>  <Rbt.Executable>  (75) 
rbdock ($Id: //depot/dev/client3/rdock/2013.1/src/exe/rbdock.cxx#4 $)

>  <Rbt.Library>  (75) 
libRbt.so (2013.1, Build901 2013/11/27)

>  <Rbt.Parameter_File>  (75) 
/home/smaltr/software/rDock_2013.1_src//data/scripts/dock.prm

>  <Rbt.Receptor>  (75) 
/pylon5/mc5pksp/smaltr/gateway_workdirs/PROCESS_93251df5-8da2-4fa9-b874-71853b29d1ad/output/SnD-Target-Sep02/cavity/pocket_docking.prm

>  <SCORE>  (75) 
-18.959500

>  <SCORE.INTER>  (75) 
-19.705700

>  <SCORE.INTER.CONST>  (75) 
1

>  <SCORE.INTER.POLAR>  (75) 
-2.008240

>  <SCORE.INTER.REPUL>  (75) 
0

>  <SCORE.INTER.ROT>  (75) 
5

>  <SCORE.INTER.VDW>  (75) 
-23.277600

>  <SCORE.INTER.norm>  (75) 
-0.821069

>  <SCORE.INTRA>  (75) 
0.746124

>  <SCORE.INTRA.DIHEDRAL>  (75) 
-0.309032

>  <SCORE.INTRA.DIHEDRAL.0>  (75) 
5.396800

>  <SCORE.INTRA.POLAR>  (75) 
0

>  <SCORE.INTRA.POLAR.0>  (75) 
0

>  <SCORE.INTRA.REPUL>  (75) 
0

>  <SCORE.INTRA.REPUL.0>  (75) 
0

>  <SCORE.INTRA.VDW>  (75) 
0.900640

>  <SCORE.INTRA.VDW.0>  (75) 
-1.932270

>  <SCORE.INTRA.norm>  (75) 
0.031089

>  <SCORE.RESTR>  (75) 
0

>  <SCORE.RESTR.CAVITY>  (75) 
0

>  <SCORE.RESTR.norm>  (75) 
0

>  <SCORE.SYSTEM>  (75) 
0

>  <SCORE.SYSTEM.CONST>  (75) 
0

>  <SCORE.SYSTEM.DIHEDRAL>  (75) 
0

>  <SCORE.SYSTEM.norm>  (75) 
0

>  <SCORE.heavy>  (75) 
24

>  <SCORE.norm>  (75) 
-0.789980

>  <SMILES>  (75) 
CCn1nnnc1-c1cccc(C(=O)NCc2cccc(C)c2)c1

>  <Cycle>  (75) 
228

>  <MolWeight>  (75) 
321.384000

>  <LogP>  (75) 
2.598420

>  <QED>  (75) 
0.783778

>  <SAS>  (75) 
1.9398127787251171

$$$$
design_10
     RDKit          3D

 57 60  0  0  0  0  0  0  0  0999 V2000
   -9.2400   -6.6781   -5.6467 C   0  0  0  0  0  0  0  0  0  0  0  0
  -10.1048   -7.7630   -5.0642 C   0  0  0  0  0  0  0  0  0  0  0  0
  -10.6308   -7.3563   -3.7722 N   0  0  0  0  0  0  0  0  0  0  0  0
   -9.8244   -7.0657   -2.7098 N   0  0  0  0  0  0  0  0  0  0  0  0
  -10.6201   -6.7056   -1.7399 N   0  0  0  0  0  0  0  0  0  0  0  0
  -11.8607   -6.7621   -2.1537 N   0  0  0  0  0  0  0  0  0  0  0  0
  -11.8956   -7.1814   -3.4656 C   0  0  0  0  0  0  0  0  0  0  0  0
  -13.1555   -7.2885   -4.1713 C   0  0  0  0  0  0  0  0  0  0  0  0
  -13.2828   -7.5892   -5.4990 C   0  0  0  0  0  0  0  0  0  0  0  0
  -14.5493   -7.6094   -6.1094 C   0  0  0  0  0  0  0  0  0  0  0  0
  -15.6865   -7.3278   -5.3814 C   0  0  0  0  0  0  0  0  0  0  0  0
  -15.5955   -7.0228   -4.0448 C   0  0  0  0  0  0  0  0  0  0  0  0
  -16.7974   -6.7096   -3.2446 C   0  0  0  0  0  0  0  0  0  0  0  0
  -17.9344   -6.9735   -3.7168 O   0  0  0  0  0  0  0  0  0  0  0  0
  -16.7085   -6.1244   -1.9683 N   0  0  0  0  0  0  0  0  0  0  0  0
  -17.8981   -5.8284   -1.2131 C   0  0  0  0  0  0  0  0  0  0  0  0
  -17.5076   -4.9830   -0.0668 C   0  0  0  0  0  0  0  0  0  0  0  0
  -16.6531   -5.4354    0.9114 C   0  0  0  0  0  0  0  0  0  0  0  0
  -16.3324   -4.5918    1.9602 C   0  0  0  0  0  0  0  0  0  0  0  0
  -16.8369   -3.3125    2.0635 C   0  0  0  0  0  0  0  0  0  0  0  0
  -17.7024   -2.8709    1.0611 C   0  0  0  0  0  0  0  0  0  0  0  0
  -18.2639   -1.4914    1.1462 C   0  0  0  0  0  0  0  0  0  0  0  0
  -18.0268   -3.7102    0.0098 C   0  0  0  0  0  0  0  0  0  0  0  0
  -14.3524   -7.0094   -3.4743 C   0  0  0  0  0  0  0  0  0  0  0  0
   -8.2815   -7.1008   -5.9479 H   0  0  0  0  0  0  0  0  0  0  0  0
   -9.7350   -6.2456   -6.5162 H   0  0  0  0  0  0  0  0  0  0  0  0
   -9.0755   -5.9028   -4.8984 H   0  0  0  0  0  0  0  0  0  0  0  0
   -9.5016   -8.6612   -4.9319 H   0  0  0  0  0  0  0  0  0  0  0  0
  -10.9339   -7.9646   -5.7424 H   0  0  0  0  0  0  0  0  0  0  0  0
  -12.3948   -7.8152   -6.0894 H   0  0  0  0  0  0  0  0  0  0  0  0
  -14.6333   -7.8502   -7.1692 H   0  0  0  0  0  0  0  0  0  0  0  0
  -16.6614   -7.3473   -5.8685 H   0  0  0  0  0  0  0  0  0  0  0  0
  -15.8019   -5.9100   -1.5782 H   0  0  0  0  0  0  0  0  0  0  0  0
  -18.3659   -6.7491   -0.8644 H   0  0  0  0  0  0  0  0  0  0  0  0
  -18.6134   -5.2963   -1.8403 H   0  0  0  0  0  0  0  0  0  0  0  0
  -16.2358   -6.4411    0.8613 H   0  0  0  0  0  0  0  0  0  0  0  0
  -15.6551   -4.9522    2.7344 H   0  0  0  0  0  0  0  0  0  0  0  0
  -19.2299   -1.5234    1.6502 H   0  0  0  0  0  0  0  0  0  0  0  0
  -17.5816   -0.8549    1.7097 H   0  0  0  0  0  0  0  0  0  0  0  0
  -18.3920   -1.0880    0.1417 H   0  0  0  0  0  0  0  0  0  0  0  0
  -18.7033   -3.3584   -0.7691 H   0  0  0  0  0  0  0  0  0  0  0  0
  -14.2805   -6.7679   -2.4138 H   0  0  0  0  0  0  0  0  0  0  0  0
  -15.8844   -1.0138    5.0417 C   0  0  0  0  0  0  0  0  0  0  0  0
  -14.9415   -1.8894    4.4893 C   0  0  0  0  0  0  0  0  0  0  0  0
  -15.2859   -2.7104    3.4230 C   0  0  0  0  0  0  0  0  0  0  0  0
  -16.5697   -2.6699    2.8970 C   0  0  0  0  0  0  0  0  0  0  0  0
  -17.5110   -1.8069    3.4364 C   0  0  0  0  0  0  0  0  0  0  0  0
  -17.1705   -0.9837    4.5018 C   0  0  0  0  0  0  0  0  0  0  0  0
  -15.5681   -0.1211    6.1749 C   0  0  0  0  0  0  0  0  0  0  0  0
  -14.3335   -0.1728    6.6644 N   0  0  0  0  0  0  0  0  0  0  0  0
  -16.3647    0.6514    6.6807 O   0  0  0  0  0  0  0  0  0  0  0  0
  -13.9313   -1.9558    4.8655 H   0  0  0  0  0  0  0  0  0  0  0  0
  -14.5543   -3.3849    2.9997 H   0  0  0  0  0  0  0  0  0  0  0  0
  -18.5115   -1.7724    3.0284 H   0  0  0  0  0  0  0  0  0  0  0  0
  -17.9172   -0.3158    4.9114 H   0  0  0  0  0  0  0  0  0  0  0  0
  -13.6145   -0.7662    6.3234 H   0  0  0  0  0  0  0  0  0  0  0  0
  -14.2157    0.4625    7.4234 H   0  0  0  0  0  0  0  0  0  0  0  0
  1  2  1  0
  2  3  1  0
  3  4  1  0
  4  5  2  0
  5  6  1  0
  6  7  2  0
  7  8  1  0
  8  9  2  0
  9 10  1  0
 10 11  2  0
 11 12  1  0
 12 13  1  0
 13 14  2  0
 13 15  1  0
 15 16  1  0
 16 17  1  0
 17 18  2  0
 18 19  1  0
 19 20  2  0
 20 21  1  0
 21 22  1  0
 21 23  2  0
 12 24  2  0
  3  7  1  0
  8 24  1  0
 17 23  1  0
  1 25  1  0
  1 26  1  0
  1 27  1  0
  2 28  1  0
  2 29  1  0
  9 30  1  0
 10 31  1  0
 11 32  1  0
 15 33  1  0
 16 34  1  0
 16 35  1  0
 18 36  1  0
 19 37  1  0
 22 38  1  0
 22 39  1  0
 22 40  1  0
 23 41  1  0
 24 42  1  0
 43 44  2  0
 43 48  1  0
 43 49  1  0
 44 45  1  0
 44 52  1  0
 45 46  2  0
 45 53  1  0
 46 47  1  0
 47 48  2  0
 47 54  1  0
 48 55  1  0
 49 50  1  0
 49 51  2  0
 50 56  1  0
 50 57  1  0
 20 46  1  0
M  END
>  <CHROM.1>  (76) 
-61.21881374,-2.92414870,13.81509078,-168.53354661,-62.78859739,-14.60626922
-6.05811051,-2.36166533,-0.75171827,-0.07503907,1.05483303

>  <Name>  (76) 
design_10

>  <RI>  (76) 
37398200.000000

>  <Rbt.Current_Directory>  (76) 
/pylon5/mc5pksp/smaltr/gateway_workdirs/PROCESS_93251df5-8da2-4fa9-b874-71853b29d1ad

>  <Rbt.Executable>  (76) 
rbdock ($Id: //depot/dev/client3/rdock/2013.1/src/exe/rbdock.cxx#4 $)

>  <Rbt.Library>  (76) 
libRbt.so (2013.1, Build901 2013/11/27)

>  <Rbt.Parameter_File>  (76) 
/home/smaltr/software/rDock_2013.1_src//data/scripts/dock.prm

>  <Rbt.Receptor>  (76) 
/pylon5/mc5pksp/smaltr/gateway_workdirs/PROCESS_93251df5-8da2-4fa9-b874-71853b29d1ad/output/SnD-Target-Sep02/cavity/pocket_docking.prm

>  <SCORE>  (76) 
-18.959500

>  <SCORE.INTER>  (76) 
-19.705700

>  <SCORE.INTER.CONST>  (76) 
1

>  <SCORE.INTER.POLAR>  (76) 
-2.008240

>  <SCORE.INTER.REPUL>  (76) 
0

>  <SCORE.INTER.ROT>  (76) 
5

>  <SCORE.INTER.VDW>  (76) 
-23.277600

>  <SCORE.INTER.norm>  (76) 
-0.821069

>  <SCORE.INTRA>  (76) 
0.746124

>  <SCORE.INTRA.DIHEDRAL>  (76) 
-0.309032

>  <SCORE.INTRA.DIHEDRAL.0>  (76) 
5.396800

>  <SCORE.INTRA.POLAR>  (76) 
0

>  <SCORE.INTRA.POLAR.0>  (76) 
0

>  <SCORE.INTRA.REPUL>  (76) 
0

>  <SCORE.INTRA.REPUL.0>  (76) 
0

>  <SCORE.INTRA.VDW>  (76) 
0.900640

>  <SCORE.INTRA.VDW.0>  (76) 
-1.932270

>  <SCORE.INTRA.norm>  (76) 
0.031089

>  <SCORE.RESTR>  (76) 
0

>  <SCORE.RESTR.CAVITY>  (76) 
0

>  <SCORE.RESTR.norm>  (76) 
0

>  <SCORE.SYSTEM>  (76) 
0

>  <SCORE.SYSTEM.CONST>  (76) 
0

>  <SCORE.SYSTEM.DIHEDRAL>  (76) 
0

>  <SCORE.SYSTEM.norm>  (76) 
0

>  <SCORE.heavy>  (76) 
24

>  <SCORE.norm>  (76) 
-0.789980

>  <SMILES>  (76) 
CCn1nnnc1-c1cccc(C(=O)NCc2cccc(C)c2)c1

>  <Cycle>  (76) 
228

>  <MolWeight>  (76) 
321.384000

>  <LogP>  (76) 
2.598420

>  <QED>  (76) 
0.783778

>  <SAS>  (76) 
1.9398127787251171

$$$$
design_10
     RDKit          3D

 57 60  0  0  0  0  0  0  0  0999 V2000
   -9.2400   -6.6781   -5.6467 C   0  0  0  0  0  0  0  0  0  0  0  0
  -10.1048   -7.7630   -5.0642 C   0  0  0  0  0  0  0  0  0  0  0  0
  -10.6308   -7.3563   -3.7722 N   0  0  0  0  0  0  0  0  0  0  0  0
   -9.8244   -7.0657   -2.7098 N   0  0  0  0  0  0  0  0  0  0  0  0
  -10.6201   -6.7056   -1.7399 N   0  0  0  0  0  0  0  0  0  0  0  0
  -11.8607   -6.7621   -2.1537 N   0  0  0  0  0  0  0  0  0  0  0  0
  -11.8956   -7.1814   -3.4656 C   0  0  0  0  0  0  0  0  0  0  0  0
  -13.1555   -7.2885   -4.1713 C   0  0  0  0  0  0  0  0  0  0  0  0
  -13.2828   -7.5892   -5.4990 C   0  0  0  0  0  0  0  0  0  0  0  0
  -14.5493   -7.6094   -6.1094 C   0  0  0  0  0  0  0  0  0  0  0  0
  -15.6865   -7.3278   -5.3814 C   0  0  0  0  0  0  0  0  0  0  0  0
  -15.5955   -7.0228   -4.0448 C   0  0  0  0  0  0  0  0  0  0  0  0
  -16.7974   -6.7096   -3.2446 C   0  0  0  0  0  0  0  0  0  0  0  0
  -17.9344   -6.9735   -3.7168 O   0  0  0  0  0  0  0  0  0  0  0  0
  -16.7085   -6.1244   -1.9683 N   0  0  0  0  0  0  0  0  0  0  0  0
  -17.8981   -5.8284   -1.2131 C   0  0  0  0  0  0  0  0  0  0  0  0
  -17.5076   -4.9830   -0.0668 C   0  0  0  0  0  0  0  0  0  0  0  0
  -16.6531   -5.4354    0.9114 C   0  0  0  0  0  0  0  0  0  0  0  0
  -16.3324   -4.5918    1.9602 C   0  0  0  0  0  0  0  0  0  0  0  0
  -16.8369   -3.3125    2.0635 C   0  0  0  0  0  0  0  0  0  0  0  0
  -17.7024   -2.8709    1.0611 C   0  0  0  0  0  0  0  0  0  0  0  0
  -18.2639   -1.4914    1.1462 C   0  0  0  0  0  0  0  0  0  0  0  0
  -18.0268   -3.7102    0.0098 C   0  0  0  0  0  0  0  0  0  0  0  0
  -14.3524   -7.0094   -3.4743 C   0  0  0  0  0  0  0  0  0  0  0  0
   -8.2815   -7.1008   -5.9479 H   0  0  0  0  0  0  0  0  0  0  0  0
   -9.7350   -6.2456   -6.5162 H   0  0  0  0  0  0  0  0  0  0  0  0
   -9.0755   -5.9028   -4.8984 H   0  0  0  0  0  0  0  0  0  0  0  0
   -9.5016   -8.6612   -4.9319 H   0  0  0  0  0  0  0  0  0  0  0  0
  -10.9339   -7.9646   -5.7424 H   0  0  0  0  0  0  0  0  0  0  0  0
  -12.3948   -7.8152   -6.0894 H   0  0  0  0  0  0  0  0  0  0  0  0
  -14.6333   -7.8502   -7.1692 H   0  0  0  0  0  0  0  0  0  0  0  0
  -16.6614   -7.3473   -5.8685 H   0  0  0  0  0  0  0  0  0  0  0  0
  -15.8019   -5.9100   -1.5782 H   0  0  0  0  0  0  0  0  0  0  0  0
  -18.3659   -6.7491   -0.8644 H   0  0  0  0  0  0  0  0  0  0  0  0
  -18.6134   -5.2963   -1.8403 H   0  0  0  0  0  0  0  0  0  0  0  0
  -16.2358   -6.4411    0.8613 H   0  0  0  0  0  0  0  0  0  0  0  0
  -15.6551   -4.9522    2.7344 H   0  0  0  0  0  0  0  0  0  0  0  0
  -19.2299   -1.5234    1.6502 H   0  0  0  0  0  0  0  0  0  0  0  0
  -17.5816   -0.8549    1.7097 H   0  0  0  0  0  0  0  0  0  0  0  0
  -18.3920   -1.0880    0.1417 H   0  0  0  0  0  0  0  0  0  0  0  0
  -18.7033   -3.3584   -0.7691 H   0  0  0  0  0  0  0  0  0  0  0  0
  -14.2805   -6.7679   -2.4138 H   0  0  0  0  0  0  0  0  0  0  0  0
  -14.9069   -1.4125    4.1261 C   0  0  0  0  0  0  0  0  0  0  0  0
  -15.2577   -2.2415    3.0533 C   0  0  0  0  0  0  0  0  0  0  0  0
  -16.5698   -2.6700    2.8969 C   0  0  0  0  0  0  0  0  0  0  0  0
  -17.5445   -2.2800    3.8049 C   0  0  0  0  0  0  0  0  0  0  0  0
  -17.2081   -1.4597    4.8706 C   0  0  0  0  0  0  0  0  0  0  0  0
  -15.8977   -1.0283    5.0301 C   0  0  0  0  0  0  0  0  0  0  0  0
  -13.5271   -0.9301    4.3364 C   0  0  0  0  0  0  0  0  0  0  0  0
  -12.6077   -1.3126    3.4561 N   0  0  0  0  0  0  0  0  0  0  0  0
  -13.1871   -0.2096    5.2596 O   0  0  0  0  0  0  0  0  0  0  0  0
  -14.5337   -2.5706    2.3225 H   0  0  0  0  0  0  0  0  0  0  0  0
  -18.5655   -2.6148    3.6812 H   0  0  0  0  0  0  0  0  0  0  0  0
  -17.9652   -1.1537    5.5790 H   0  0  0  0  0  0  0  0  0  0  0  0
  -15.6518   -0.3884    5.8676 H   0  0  0  0  0  0  0  0  0  0  0  0
  -12.7833   -1.8965    2.6727 H   0  0  0  0  0  0  0  0  0  0  0  0
  -11.7112   -0.9390    3.6801 H   0  0  0  0  0  0  0  0  0  0  0  0
  1  2  1  0
  2  3  1  0
  3  4  1  0
  4  5  2  0
  5  6  1  0
  6  7  2  0
  7  8  1  0
  8  9  2  0
  9 10  1  0
 10 11  2  0
 11 12  1  0
 12 13  1  0
 13 14  2  0
 13 15  1  0
 15 16  1  0
 16 17  1  0
 17 18  2  0
 18 19  1  0
 19 20  2  0
 20 21  1  0
 21 22  1  0
 21 23  2  0
 12 24  2  0
  3  7  1  0
  8 24  1  0
 17 23  1  0
  1 25  1  0
  1 26  1  0
  1 27  1  0
  2 28  1  0
  2 29  1  0
  9 30  1  0
 10 31  1  0
 11 32  1  0
 15 33  1  0
 16 34  1  0
 16 35  1  0
 18 36  1  0
 19 37  1  0
 22 38  1  0
 22 39  1  0
 22 40  1  0
 23 41  1  0
 24 42  1  0
 43 44  2  0
 43 48  1  0
 43 49  1  0
 44 45  1  0
 44 52  1  0
 45 46  2  0
 46 47  1  0
 46 53  1  0
 47 48  2  0
 47 54  1  0
 48 55  1  0
 49 50  1  0
 49 51  2  0
 50 56  1  0
 50 57  1  0
 20 45  1  0
M  END
>  <CHROM.1>  (77) 
-61.21881374,-2.92414870,13.81509078,-168.53354661,-62.78859739,-14.60626922
-6.05811051,-2.36166533,-0.75171827,-0.07503907,1.05483303

>  <Name>  (77) 
design_10

>  <RI>  (77) 
37398200.000000

>  <Rbt.Current_Directory>  (77) 
/pylon5/mc5pksp/smaltr/gateway_workdirs/PROCESS_93251df5-8da2-4fa9-b874-71853b29d1ad

>  <Rbt.Executable>  (77) 
rbdock ($Id: //depot/dev/client3/rdock/2013.1/src/exe/rbdock.cxx#4 $)

>  <Rbt.Library>  (77) 
libRbt.so (2013.1, Build901 2013/11/27)

>  <Rbt.Parameter_File>  (77) 
/home/smaltr/software/rDock_2013.1_src//data/scripts/dock.prm

>  <Rbt.Receptor>  (77) 
/pylon5/mc5pksp/smaltr/gateway_workdirs/PROCESS_93251df5-8da2-4fa9-b874-71853b29d1ad/output/SnD-Target-Sep02/cavity/pocket_docking.prm

>  <SCORE>  (77) 
-18.959500

>  <SCORE.INTER>  (77) 
-19.705700

>  <SCORE.INTER.CONST>  (77) 
1

>  <SCORE.INTER.POLAR>  (77) 
-2.008240

>  <SCORE.INTER.REPUL>  (77) 
0

>  <SCORE.INTER.ROT>  (77) 
5

>  <SCORE.INTER.VDW>  (77) 
-23.277600

>  <SCORE.INTER.norm>  (77) 
-0.821069

>  <SCORE.INTRA>  (77) 
0.746124

>  <SCORE.INTRA.DIHEDRAL>  (77) 
-0.309032

>  <SCORE.INTRA.DIHEDRAL.0>  (77) 
5.396800

>  <SCORE.INTRA.POLAR>  (77) 
0

>  <SCORE.INTRA.POLAR.0>  (77) 
0

>  <SCORE.INTRA.REPUL>  (77) 
0

>  <SCORE.INTRA.REPUL.0>  (77) 
0

>  <SCORE.INTRA.VDW>  (77) 
0.900640

>  <SCORE.INTRA.VDW.0>  (77) 
-1.932270

>  <SCORE.INTRA.norm>  (77) 
0.031089

>  <SCORE.RESTR>  (77) 
0

>  <SCORE.RESTR.CAVITY>  (77) 
0

>  <SCORE.RESTR.norm>  (77) 
0

>  <SCORE.SYSTEM>  (77) 
0

>  <SCORE.SYSTEM.CONST>  (77) 
0

>  <SCORE.SYSTEM.DIHEDRAL>  (77) 
0

>  <SCORE.SYSTEM.norm>  (77) 
0

>  <SCORE.heavy>  (77) 
24

>  <SCORE.norm>  (77) 
-0.789980

>  <SMILES>  (77) 
CCn1nnnc1-c1cccc(C(=O)NCc2cccc(C)c2)c1

>  <Cycle>  (77) 
228

>  <MolWeight>  (77) 
321.384000

>  <LogP>  (77) 
2.598420

>  <QED>  (77) 
0.783778

>  <SAS>  (77) 
1.9398127787251171

$$$$
design_10
     RDKit          3D

 57 60  0  0  0  0  0  0  0  0999 V2000
   -9.2400   -6.6781   -5.6467 C   0  0  0  0  0  0  0  0  0  0  0  0
  -10.1048   -7.7630   -5.0642 C   0  0  0  0  0  0  0  0  0  0  0  0
  -10.6308   -7.3563   -3.7722 N   0  0  0  0  0  0  0  0  0  0  0  0
   -9.8244   -7.0657   -2.7098 N   0  0  0  0  0  0  0  0  0  0  0  0
  -10.6201   -6.7056   -1.7399 N   0  0  0  0  0  0  0  0  0  0  0  0
  -11.8607   -6.7621   -2.1537 N   0  0  0  0  0  0  0  0  0  0  0  0
  -11.8956   -7.1814   -3.4656 C   0  0  0  0  0  0  0  0  0  0  0  0
  -13.1555   -7.2885   -4.1713 C   0  0  0  0  0  0  0  0  0  0  0  0
  -13.2828   -7.5892   -5.4990 C   0  0  0  0  0  0  0  0  0  0  0  0
  -14.5493   -7.6094   -6.1094 C   0  0  0  0  0  0  0  0  0  0  0  0
  -15.6865   -7.3278   -5.3814 C   0  0  0  0  0  0  0  0  0  0  0  0
  -15.5955   -7.0228   -4.0448 C   0  0  0  0  0  0  0  0  0  0  0  0
  -16.7974   -6.7096   -3.2446 C   0  0  0  0  0  0  0  0  0  0  0  0
  -17.9344   -6.9735   -3.7168 O   0  0  0  0  0  0  0  0  0  0  0  0
  -16.7085   -6.1244   -1.9683 N   0  0  0  0  0  0  0  0  0  0  0  0
  -17.8981   -5.8284   -1.2131 C   0  0  0  0  0  0  0  0  0  0  0  0
  -17.5076   -4.9830   -0.0668 C   0  0  0  0  0  0  0  0  0  0  0  0
  -16.6531   -5.4354    0.9114 C   0  0  0  0  0  0  0  0  0  0  0  0
  -16.3324   -4.5918    1.9602 C   0  0  0  0  0  0  0  0  0  0  0  0
  -16.8369   -3.3125    2.0635 C   0  0  0  0  0  0  0  0  0  0  0  0
  -17.7024   -2.8709    1.0611 C   0  0  0  0  0  0  0  0  0  0  0  0
  -18.2639   -1.4914    1.1462 C   0  0  0  0  0  0  0  0  0  0  0  0
  -18.0268   -3.7102    0.0098 C   0  0  0  0  0  0  0  0  0  0  0  0
  -14.3524   -7.0094   -3.4743 C   0  0  0  0  0  0  0  0  0  0  0  0
   -8.2815   -7.1008   -5.9479 H   0  0  0  0  0  0  0  0  0  0  0  0
   -9.7350   -6.2456   -6.5162 H   0  0  0  0  0  0  0  0  0  0  0  0
   -9.0755   -5.9028   -4.8984 H   0  0  0  0  0  0  0  0  0  0  0  0
   -9.5016   -8.6612   -4.9319 H   0  0  0  0  0  0  0  0  0  0  0  0
  -10.9339   -7.9646   -5.7424 H   0  0  0  0  0  0  0  0  0  0  0  0
  -12.3948   -7.8152   -6.0894 H   0  0  0  0  0  0  0  0  0  0  0  0
  -14.6333   -7.8502   -7.1692 H   0  0  0  0  0  0  0  0  0  0  0  0
  -16.6614   -7.3473   -5.8685 H   0  0  0  0  0  0  0  0  0  0  0  0
  -15.8019   -5.9100   -1.5782 H   0  0  0  0  0  0  0  0  0  0  0  0
  -18.3659   -6.7491   -0.8644 H   0  0  0  0  0  0  0  0  0  0  0  0
  -18.6134   -5.2963   -1.8403 H   0  0  0  0  0  0  0  0  0  0  0  0
  -15.6551   -4.9522    2.7344 H   0  0  0  0  0  0  0  0  0  0  0  0
  -16.5687   -2.6674    2.9002 H   0  0  0  0  0  0  0  0  0  0  0  0
  -19.2299   -1.5234    1.6502 H   0  0  0  0  0  0  0  0  0  0  0  0
  -17.5816   -0.8549    1.7097 H   0  0  0  0  0  0  0  0  0  0  0  0
  -18.3920   -1.0880    0.1417 H   0  0  0  0  0  0  0  0  0  0  0  0
  -18.7033   -3.3584   -0.7691 H   0  0  0  0  0  0  0  0  0  0  0  0
  -14.2805   -6.7679   -2.4138 H   0  0  0  0  0  0  0  0  0  0  0  0
  -15.1700   -9.0173    0.7343 C   0  0  0  0  0  0  0  0  0  0  0  0
  -14.3281   -7.8983    0.7376 C   0  0  0  0  0  0  0  0  0  0  0  0
  -14.8625   -6.6177    0.8016 C   0  0  0  0  0  0  0  0  0  0  0  0
  -16.2374   -6.4372    0.8615 C   0  0  0  0  0  0  0  0  0  0  0  0
  -17.0800   -7.5380    0.8585 C   0  0  0  0  0  0  0  0  0  0  0  0
  -16.5498   -8.8201    0.7957 C   0  0  0  0  0  0  0  0  0  0  0  0
  -14.6517  -10.3986    0.6678 C   0  0  0  0  0  0  0  0  0  0  0  0
  -13.3326  -10.5518    0.6124 N   0  0  0  0  0  0  0  0  0  0  0  0
  -15.3557  -11.3943    0.6612 O   0  0  0  0  0  0  0  0  0  0  0  0
  -13.2529   -7.9897    0.6921 H   0  0  0  0  0  0  0  0  0  0  0  0
  -14.2083   -5.7567    0.8040 H   0  0  0  0  0  0  0  0  0  0  0  0
  -18.1512   -7.4007    0.9059 H   0  0  0  0  0  0  0  0  0  0  0  0
  -17.2215   -9.6688    0.7942 H   0  0  0  0  0  0  0  0  0  0  0  0
  -12.6764   -9.8070    0.6123 H   0  0  0  0  0  0  0  0  0  0  0  0
  -13.0792  -11.5149    0.5700 H   0  0  0  0  0  0  0  0  0  0  0  0
  1  2  1  0
  2  3  1  0
  3  4  1  0
  4  5  2  0
  5  6  1  0
  6  7  2  0
  7  8  1  0
  8  9  2  0
  9 10  1  0
 10 11  2  0
 11 12  1  0
 12 13  1  0
 13 14  2  0
 13 15  1  0
 15 16  1  0
 16 17  1  0
 17 18  1  0
 18 19  2  0
 19 20  1  0
 20 21  2  0
 21 22  1  0
 21 23  1  0
 12 24  2  0
  3  7  1  0
  8 24  1  0
 17 23  2  0
  1 25  1  0
  1 26  1  0
  1 27  1  0
  2 28  1  0
  2 29  1  0
  9 30  1  0
 10 31  1  0
 11 32  1  0
 15 33  1  0
 16 34  1  0
 16 35  1  0
 19 36  1  0
 20 37  1  0
 22 38  1  0
 22 39  1  0
 22 40  1  0
 23 41  1  0
 24 42  1  0
 43 44  2  0
 43 48  1  0
 43 49  1  0
 44 45  1  0
 44 52  1  0
 45 46  2  0
 45 53  1  0
 46 47  1  0
 47 48  2  0
 47 54  1  0
 48 55  1  0
 49 50  1  0
 49 51  2  0
 50 56  1  0
 50 57  1  0
 18 46  1  0
M  END
>  <CHROM.1>  (78) 
-61.21881374,-2.92414870,13.81509078,-168.53354661,-62.78859739,-14.60626922
-6.05811051,-2.36166533,-0.75171827,-0.07503907,1.05483303

>  <Name>  (78) 
design_10

>  <RI>  (78) 
37398200.000000

>  <Rbt.Current_Directory>  (78) 
/pylon5/mc5pksp/smaltr/gateway_workdirs/PROCESS_93251df5-8da2-4fa9-b874-71853b29d1ad

>  <Rbt.Executable>  (78) 
rbdock ($Id: //depot/dev/client3/rdock/2013.1/src/exe/rbdock.cxx#4 $)

>  <Rbt.Library>  (78) 
libRbt.so (2013.1, Build901 2013/11/27)

>  <Rbt.Parameter_File>  (78) 
/home/smaltr/software/rDock_2013.1_src//data/scripts/dock.prm

>  <Rbt.Receptor>  (78) 
/pylon5/mc5pksp/smaltr/gateway_workdirs/PROCESS_93251df5-8da2-4fa9-b874-71853b29d1ad/output/SnD-Target-Sep02/cavity/pocket_docking.prm

>  <SCORE>  (78) 
-18.959500

>  <SCORE.INTER>  (78) 
-19.705700

>  <SCORE.INTER.CONST>  (78) 
1

>  <SCORE.INTER.POLAR>  (78) 
-2.008240

>  <SCORE.INTER.REPUL>  (78) 
0

>  <SCORE.INTER.ROT>  (78) 
5

>  <SCORE.INTER.VDW>  (78) 
-23.277600

>  <SCORE.INTER.norm>  (78) 
-0.821069

>  <SCORE.INTRA>  (78) 
0.746124

>  <SCORE.INTRA.DIHEDRAL>  (78) 
-0.309032

>  <SCORE.INTRA.DIHEDRAL.0>  (78) 
5.396800

>  <SCORE.INTRA.POLAR>  (78) 
0

>  <SCORE.INTRA.POLAR.0>  (78) 
0

>  <SCORE.INTRA.REPUL>  (78) 
0

>  <SCORE.INTRA.REPUL.0>  (78) 
0

>  <SCORE.INTRA.VDW>  (78) 
0.900640

>  <SCORE.INTRA.VDW.0>  (78) 
-1.932270

>  <SCORE.INTRA.norm>  (78) 
0.031089

>  <SCORE.RESTR>  (78) 
0

>  <SCORE.RESTR.CAVITY>  (78) 
0

>  <SCORE.RESTR.norm>  (78) 
0

>  <SCORE.SYSTEM>  (78) 
0

>  <SCORE.SYSTEM.CONST>  (78) 
0

>  <SCORE.SYSTEM.DIHEDRAL>  (78) 
0

>  <SCORE.SYSTEM.norm>  (78) 
0

>  <SCORE.heavy>  (78) 
24

>  <SCORE.norm>  (78) 
-0.789980

>  <SMILES>  (78) 
CCn1nnnc1-c1cccc(C(=O)NCc2cccc(C)c2)c1

>  <Cycle>  (78) 
228

>  <MolWeight>  (78) 
321.384000

>  <LogP>  (78) 
2.598420

>  <QED>  (78) 
0.783778

>  <SAS>  (78) 
1.9398127787251171

$$$$
design_10
     RDKit          3D

 57 60  0  0  0  0  0  0  0  0999 V2000
   -9.2400   -6.6781   -5.6467 C   0  0  0  0  0  0  0  0  0  0  0  0
  -10.1048   -7.7630   -5.0642 C   0  0  0  0  0  0  0  0  0  0  0  0
  -10.6308   -7.3563   -3.7722 N   0  0  0  0  0  0  0  0  0  0  0  0
   -9.8244   -7.0657   -2.7098 N   0  0  0  0  0  0  0  0  0  0  0  0
  -10.6201   -6.7056   -1.7399 N   0  0  0  0  0  0  0  0  0  0  0  0
  -11.8607   -6.7621   -2.1537 N   0  0  0  0  0  0  0  0  0  0  0  0
  -11.8956   -7.1814   -3.4656 C   0  0  0  0  0  0  0  0  0  0  0  0
  -13.1555   -7.2885   -4.1713 C   0  0  0  0  0  0  0  0  0  0  0  0
  -13.2828   -7.5892   -5.4990 C   0  0  0  0  0  0  0  0  0  0  0  0
  -14.5493   -7.6094   -6.1094 C   0  0  0  0  0  0  0  0  0  0  0  0
  -15.6865   -7.3278   -5.3814 C   0  0  0  0  0  0  0  0  0  0  0  0
  -15.5955   -7.0228   -4.0448 C   0  0  0  0  0  0  0  0  0  0  0  0
  -16.7974   -6.7096   -3.2446 C   0  0  0  0  0  0  0  0  0  0  0  0
  -17.9344   -6.9735   -3.7168 O   0  0  0  0  0  0  0  0  0  0  0  0
  -16.7085   -6.1244   -1.9683 N   0  0  0  0  0  0  0  0  0  0  0  0
  -17.8981   -5.8284   -1.2131 C   0  0  0  0  0  0  0  0  0  0  0  0
  -17.5076   -4.9830   -0.0668 C   0  0  0  0  0  0  0  0  0  0  0  0
  -16.6531   -5.4354    0.9114 C   0  0  0  0  0  0  0  0  0  0  0  0
  -16.3324   -4.5918    1.9602 C   0  0  0  0  0  0  0  0  0  0  0  0
  -16.8369   -3.3125    2.0635 C   0  0  0  0  0  0  0  0  0  0  0  0
  -17.7024   -2.8709    1.0611 C   0  0  0  0  0  0  0  0  0  0  0  0
  -18.2639   -1.4914    1.1462 C   0  0  0  0  0  0  0  0  0  0  0  0
  -18.0268   -3.7102    0.0098 C   0  0  0  0  0  0  0  0  0  0  0  0
  -14.3524   -7.0094   -3.4743 C   0  0  0  0  0  0  0  0  0  0  0  0
   -8.2815   -7.1008   -5.9479 H   0  0  0  0  0  0  0  0  0  0  0  0
   -9.7350   -6.2456   -6.5162 H   0  0  0  0  0  0  0  0  0  0  0  0
   -9.0755   -5.9028   -4.8984 H   0  0  0  0  0  0  0  0  0  0  0  0
   -9.5016   -8.6612   -4.9319 H   0  0  0  0  0  0  0  0  0  0  0  0
  -10.9339   -7.9646   -5.7424 H   0  0  0  0  0  0  0  0  0  0  0  0
  -12.3948   -7.8152   -6.0894 H   0  0  0  0  0  0  0  0  0  0  0  0
  -14.6333   -7.8502   -7.1692 H   0  0  0  0  0  0  0  0  0  0  0  0
  -16.6614   -7.3473   -5.8685 H   0  0  0  0  0  0  0  0  0  0  0  0
  -15.8019   -5.9100   -1.5782 H   0  0  0  0  0  0  0  0  0  0  0  0
  -18.3659   -6.7491   -0.8644 H   0  0  0  0  0  0  0  0  0  0  0  0
  -18.6134   -5.2963   -1.8403 H   0  0  0  0  0  0  0  0  0  0  0  0
  -15.6551   -4.9522    2.7344 H   0  0  0  0  0  0  0  0  0  0  0  0
  -16.5687   -2.6674    2.9002 H   0  0  0  0  0  0  0  0  0  0  0  0
  -19.2299   -1.5234    1.6502 H   0  0  0  0  0  0  0  0  0  0  0  0
  -17.5816   -0.8549    1.7097 H   0  0  0  0  0  0  0  0  0  0  0  0
  -18.3920   -1.0880    0.1417 H   0  0  0  0  0  0  0  0  0  0  0  0
  -18.7033   -3.3584   -0.7691 H   0  0  0  0  0  0  0  0  0  0  0  0
  -14.2805   -6.7679   -2.4138 H   0  0  0  0  0  0  0  0  0  0  0  0
  -16.5507   -8.8352    0.7721 C   0  0  0  0  0  0  0  0  0  0  0  0
  -17.0807   -7.5407    0.8366 C   0  0  0  0  0  0  0  0  0  0  0  0
  -16.2375   -6.4371    0.8615 C   0  0  0  0  0  0  0  0  0  0  0  0
  -14.8607   -6.6095    0.8238 C   0  0  0  0  0  0  0  0  0  0  0  0
  -14.3254   -7.8867    0.7602 C   0  0  0  0  0  0  0  0  0  0  0  0
  -15.1650   -8.9927    0.7341 C   0  0  0  0  0  0  0  0  0  0  0  0
  -17.4040  -10.0403    0.7432 C   0  0  0  0  0  0  0  0  0  0  0  0
  -18.7197   -9.8554    0.7786 N   0  0  0  0  0  0  0  0  0  0  0  0
  -16.9761  -11.1809    0.6891 O   0  0  0  0  0  0  0  0  0  0  0  0
  -18.1447   -7.3577    0.8680 H   0  0  0  0  0  0  0  0  0  0  0  0
  -14.2059   -5.7490    0.8434 H   0  0  0  0  0  0  0  0  0  0  0  0
  -13.2536   -8.0242    0.7299 H   0  0  0  0  0  0  0  0  0  0  0  0
  -14.7309   -9.9829    0.6844 H   0  0  0  0  0  0  0  0  0  0  0  0
  -19.1653   -8.9694    0.8231 H   0  0  0  0  0  0  0  0  0  0  0  0
  -19.2102  -10.7228    0.7552 H   0  0  0  0  0  0  0  0  0  0  0  0
  1  2  1  0
  2  3  1  0
  3  4  1  0
  4  5  2  0
  5  6  1  0
  6  7  2  0
  7  8  1  0
  8  9  2  0
  9 10  1  0
 10 11  2  0
 11 12  1  0
 12 13  1  0
 13 14  2  0
 13 15  1  0
 15 16  1  0
 16 17  1  0
 17 18  1  0
 18 19  2  0
 19 20  1  0
 20 21  2  0
 21 22  1  0
 21 23  1  0
 12 24  2  0
  3  7  1  0
  8 24  1  0
 17 23  2  0
  1 25  1  0
  1 26  1  0
  1 27  1  0
  2 28  1  0
  2 29  1  0
  9 30  1  0
 10 31  1  0
 11 32  1  0
 15 33  1  0
 16 34  1  0
 16 35  1  0
 19 36  1  0
 20 37  1  0
 22 38  1  0
 22 39  1  0
 22 40  1  0
 23 41  1  0
 24 42  1  0
 43 44  2  0
 43 48  1  0
 43 49  1  0
 44 45  1  0
 44 52  1  0
 45 46  2  0
 46 47  1  0
 46 53  1  0
 47 48  2  0
 47 54  1  0
 48 55  1  0
 49 50  1  0
 49 51  2  0
 50 56  1  0
 50 57  1  0
 18 45  1  0
M  END
>  <CHROM.1>  (79) 
-61.21881374,-2.92414870,13.81509078,-168.53354661,-62.78859739,-14.60626922
-6.05811051,-2.36166533,-0.75171827,-0.07503907,1.05483303

>  <Name>  (79) 
design_10

>  <RI>  (79) 
37398200.000000

>  <Rbt.Current_Directory>  (79) 
/pylon5/mc5pksp/smaltr/gateway_workdirs/PROCESS_93251df5-8da2-4fa9-b874-71853b29d1ad

>  <Rbt.Executable>  (79) 
rbdock ($Id: //depot/dev/client3/rdock/2013.1/src/exe/rbdock.cxx#4 $)

>  <Rbt.Library>  (79) 
libRbt.so (2013.1, Build901 2013/11/27)

>  <Rbt.Parameter_File>  (79) 
/home/smaltr/software/rDock_2013.1_src//data/scripts/dock.prm

>  <Rbt.Receptor>  (79) 
/pylon5/mc5pksp/smaltr/gateway_workdirs/PROCESS_93251df5-8da2-4fa9-b874-71853b29d1ad/output/SnD-Target-Sep02/cavity/pocket_docking.prm

>  <SCORE>  (79) 
-18.959500

>  <SCORE.INTER>  (79) 
-19.705700

>  <SCORE.INTER.CONST>  (79) 
1

>  <SCORE.INTER.POLAR>  (79) 
-2.008240

>  <SCORE.INTER.REPUL>  (79) 
0

>  <SCORE.INTER.ROT>  (79) 
5

>  <SCORE.INTER.VDW>  (79) 
-23.277600

>  <SCORE.INTER.norm>  (79) 
-0.821069

>  <SCORE.INTRA>  (79) 
0.746124

>  <SCORE.INTRA.DIHEDRAL>  (79) 
-0.309032

>  <SCORE.INTRA.DIHEDRAL.0>  (79) 
5.396800

>  <SCORE.INTRA.POLAR>  (79) 
0

>  <SCORE.INTRA.POLAR.0>  (79) 
0

>  <SCORE.INTRA.REPUL>  (79) 
0

>  <SCORE.INTRA.REPUL.0>  (79) 
0

>  <SCORE.INTRA.VDW>  (79) 
0.900640

>  <SCORE.INTRA.VDW.0>  (79) 
-1.932270

>  <SCORE.INTRA.norm>  (79) 
0.031089

>  <SCORE.RESTR>  (79) 
0

>  <SCORE.RESTR.CAVITY>  (79) 
0

>  <SCORE.RESTR.norm>  (79) 
0

>  <SCORE.SYSTEM>  (79) 
0

>  <SCORE.SYSTEM.CONST>  (79) 
0

>  <SCORE.SYSTEM.DIHEDRAL>  (79) 
0

>  <SCORE.SYSTEM.norm>  (79) 
0

>  <SCORE.heavy>  (79) 
24

>  <SCORE.norm>  (79) 
-0.789980

>  <SMILES>  (79) 
CCn1nnnc1-c1cccc(C(=O)NCc2cccc(C)c2)c1

>  <Cycle>  (79) 
228

>  <MolWeight>  (79) 
321.384000

>  <LogP>  (79) 
2.598420

>  <QED>  (79) 
0.783778

>  <SAS>  (79) 
1.9398127787251171

$$$$
design_10
     RDKit          3D

 57 60  0  0  0  0  0  0  0  0999 V2000
   -9.2400   -6.6781   -5.6467 C   0  0  0  0  0  0  0  0  0  0  0  0
  -10.1048   -7.7630   -5.0642 C   0  0  0  0  0  0  0  0  0  0  0  0
  -10.6308   -7.3563   -3.7722 N   0  0  0  0  0  0  0  0  0  0  0  0
   -9.8244   -7.0657   -2.7098 N   0  0  0  0  0  0  0  0  0  0  0  0
  -10.6201   -6.7056   -1.7399 N   0  0  0  0  0  0  0  0  0  0  0  0
  -11.8607   -6.7621   -2.1537 N   0  0  0  0  0  0  0  0  0  0  0  0
  -11.8956   -7.1814   -3.4656 C   0  0  0  0  0  0  0  0  0  0  0  0
  -13.1555   -7.2885   -4.1713 C   0  0  0  0  0  0  0  0  0  0  0  0
  -13.2828   -7.5892   -5.4990 C   0  0  0  0  0  0  0  0  0  0  0  0
  -14.5493   -7.6094   -6.1094 C   0  0  0  0  0  0  0  0  0  0  0  0
  -15.6865   -7.3278   -5.3814 C   0  0  0  0  0  0  0  0  0  0  0  0
  -15.5955   -7.0228   -4.0448 C   0  0  0  0  0  0  0  0  0  0  0  0
  -16.7974   -6.7096   -3.2446 C   0  0  0  0  0  0  0  0  0  0  0  0
  -17.9344   -6.9735   -3.7168 O   0  0  0  0  0  0  0  0  0  0  0  0
  -16.7085   -6.1244   -1.9683 N   0  0  0  0  0  0  0  0  0  0  0  0
  -17.8981   -5.8284   -1.2131 C   0  0  0  0  0  0  0  0  0  0  0  0
  -17.5076   -4.9830   -0.0668 C   0  0  0  0  0  0  0  0  0  0  0  0
  -16.6531   -5.4354    0.9114 C   0  0  0  0  0  0  0  0  0  0  0  0
  -16.3324   -4.5918    1.9602 C   0  0  0  0  0  0  0  0  0  0  0  0
  -16.8369   -3.3125    2.0635 C   0  0  0  0  0  0  0  0  0  0  0  0
  -17.7024   -2.8709    1.0611 C   0  0  0  0  0  0  0  0  0  0  0  0
  -18.2639   -1.4914    1.1462 C   0  0  0  0  0  0  0  0  0  0  0  0
  -18.0268   -3.7102    0.0098 C   0  0  0  0  0  0  0  0  0  0  0  0
  -14.3524   -7.0094   -3.4743 C   0  0  0  0  0  0  0  0  0  0  0  0
   -8.2815   -7.1008   -5.9479 H   0  0  0  0  0  0  0  0  0  0  0  0
   -9.7350   -6.2456   -6.5162 H   0  0  0  0  0  0  0  0  0  0  0  0
   -9.0755   -5.9028   -4.8984 H   0  0  0  0  0  0  0  0  0  0  0  0
   -9.5016   -8.6612   -4.9319 H   0  0  0  0  0  0  0  0  0  0  0  0
  -10.9339   -7.9646   -5.7424 H   0  0  0  0  0  0  0  0  0  0  0  0
  -12.3948   -7.8152   -6.0894 H   0  0  0  0  0  0  0  0  0  0  0  0
  -14.6333   -7.8502   -7.1692 H   0  0  0  0  0  0  0  0  0  0  0  0
  -16.6614   -7.3473   -5.8685 H   0  0  0  0  0  0  0  0  0  0  0  0
  -15.8019   -5.9100   -1.5782 H   0  0  0  0  0  0  0  0  0  0  0  0
  -18.3659   -6.7491   -0.8644 H   0  0  0  0  0  0  0  0  0  0  0  0
  -18.6134   -5.2963   -1.8403 H   0  0  0  0  0  0  0  0  0  0  0  0
  -16.2358   -6.4411    0.8613 H   0  0  0  0  0  0  0  0  0  0  0  0
  -15.6551   -4.9522    2.7344 H   0  0  0  0  0  0  0  0  0  0  0  0
  -16.5687   -2.6674    2.9002 H   0  0  0  0  0  0  0  0  0  0  0  0
  -19.2299   -1.5234    1.6502 H   0  0  0  0  0  0  0  0  0  0  0  0
  -17.5816   -0.8549    1.7097 H   0  0  0  0  0  0  0  0  0  0  0  0
  -18.3920   -1.0880    0.1417 H   0  0  0  0  0  0  0  0  0  0  0  0
  -14.2805   -6.7679   -2.4138 H   0  0  0  0  0  0  0  0  0  0  0  0
  -20.0484   -3.7368   -0.8050 C   0  0  0  0  0  0  0  0  0  0  0  0
  -18.7002   -3.3600   -0.7655 C   0  0  0  0  0  0  0  0  0  0  0  0
  -18.1795   -2.5120   -1.7348 C   0  0  0  0  0  0  0  0  0  0  0  0
  -18.9926   -2.0319   -2.7521 C   0  0  0  0  0  0  0  0  0  0  0  0
  -20.3286   -2.3987   -2.8007 C   0  0  0  0  0  0  0  0  0  0  0  0
  -20.8534   -3.2456   -1.8331 C   0  0  0  0  0  0  0  0  0  0  0  0
  -20.6497   -4.6352    0.2011 C   0  0  0  0  0  0  0  0  0  0  0  0
  -19.8562   -5.0838    1.1684 N   0  0  0  0  0  0  0  0  0  0  0  0
  -21.8181   -4.9845    0.1957 O   0  0  0  0  0  0  0  0  0  0  0  0
  -17.1379   -2.2238   -1.7000 H   0  0  0  0  0  0  0  0  0  0  0  0
  -18.5852   -1.3717   -3.5057 H   0  0  0  0  0  0  0  0  0  0  0  0
  -20.9646   -2.0258   -3.5913 H   0  0  0  0  0  0  0  0  0  0  0  0
  -21.8984   -3.5224   -1.8857 H   0  0  0  0  0  0  0  0  0  0  0  0
  -18.8938   -4.8584    1.2603 H   0  0  0  0  0  0  0  0  0  0  0  0
  -20.3490   -5.6804    1.7966 H   0  0  0  0  0  0  0  0  0  0  0  0
  1  2  1  0
  2  3  1  0
  3  4  1  0
  4  5  2  0
  5  6  1  0
  6  7  2  0
  7  8  1  0
  8  9  2  0
  9 10  1  0
 10 11  2  0
 11 12  1  0
 12 13  1  0
 13 14  2  0
 13 15  1  0
 15 16  1  0
 16 17  1  0
 17 18  2  0
 18 19  1  0
 19 20  2  0
 20 21  1  0
 21 22  1  0
 21 23  2  0
 12 24  2  0
  3  7  1  0
  8 24  1  0
 17 23  1  0
  1 25  1  0
  1 26  1  0
  1 27  1  0
  2 28  1  0
  2 29  1  0
  9 30  1  0
 10 31  1  0
 11 32  1  0
 15 33  1  0
 16 34  1  0
 16 35  1  0
 18 36  1  0
 19 37  1  0
 20 38  1  0
 22 39  1  0
 22 40  1  0
 22 41  1  0
 24 42  1  0
 43 44  2  0
 43 48  1  0
 43 49  1  0
 44 45  1  0
 45 46  2  0
 45 52  1  0
 46 47  1  0
 46 53  1  0
 47 48  2  0
 47 54  1  0
 48 55  1  0
 49 50  1  0
 49 51  2  0
 50 56  1  0
 50 57  1  0
 23 44  1  0
M  END
>  <CHROM.1>  (80) 
-61.21881374,-2.92414870,13.81509078,-168.53354661,-62.78859739,-14.60626922
-6.05811051,-2.36166533,-0.75171827,-0.07503907,1.05483303

>  <Name>  (80) 
design_10

>  <RI>  (80) 
37398200.000000

>  <Rbt.Current_Directory>  (80) 
/pylon5/mc5pksp/smaltr/gateway_workdirs/PROCESS_93251df5-8da2-4fa9-b874-71853b29d1ad

>  <Rbt.Executable>  (80) 
rbdock ($Id: //depot/dev/client3/rdock/2013.1/src/exe/rbdock.cxx#4 $)

>  <Rbt.Library>  (80) 
libRbt.so (2013.1, Build901 2013/11/27)

>  <Rbt.Parameter_File>  (80) 
/home/smaltr/software/rDock_2013.1_src//data/scripts/dock.prm

>  <Rbt.Receptor>  (80) 
/pylon5/mc5pksp/smaltr/gateway_workdirs/PROCESS_93251df5-8da2-4fa9-b874-71853b29d1ad/output/SnD-Target-Sep02/cavity/pocket_docking.prm

>  <SCORE>  (80) 
-18.959500

>  <SCORE.INTER>  (80) 
-19.705700

>  <SCORE.INTER.CONST>  (80) 
1

>  <SCORE.INTER.POLAR>  (80) 
-2.008240

>  <SCORE.INTER.REPUL>  (80) 
0

>  <SCORE.INTER.ROT>  (80) 
5

>  <SCORE.INTER.VDW>  (80) 
-23.277600

>  <SCORE.INTER.norm>  (80) 
-0.821069

>  <SCORE.INTRA>  (80) 
0.746124

>  <SCORE.INTRA.DIHEDRAL>  (80) 
-0.309032

>  <SCORE.INTRA.DIHEDRAL.0>  (80) 
5.396800

>  <SCORE.INTRA.POLAR>  (80) 
0

>  <SCORE.INTRA.POLAR.0>  (80) 
0

>  <SCORE.INTRA.REPUL>  (80) 
0

>  <SCORE.INTRA.REPUL.0>  (80) 
0

>  <SCORE.INTRA.VDW>  (80) 
0.900640

>  <SCORE.INTRA.VDW.0>  (80) 
-1.932270

>  <SCORE.INTRA.norm>  (80) 
0.031089

>  <SCORE.RESTR>  (80) 
0

>  <SCORE.RESTR.CAVITY>  (80) 
0

>  <SCORE.RESTR.norm>  (80) 
0

>  <SCORE.SYSTEM>  (80) 
0

>  <SCORE.SYSTEM.CONST>  (80) 
0

>  <SCORE.SYSTEM.DIHEDRAL>  (80) 
0

>  <SCORE.SYSTEM.norm>  (80) 
0

>  <SCORE.heavy>  (80) 
24

>  <SCORE.norm>  (80) 
-0.789980

>  <SMILES>  (80) 
CCn1nnnc1-c1cccc(C(=O)NCc2cccc(C)c2)c1

>  <Cycle>  (80) 
228

>  <MolWeight>  (80) 
321.384000

>  <LogP>  (80) 
2.598420

>  <QED>  (80) 
0.783778

>  <SAS>  (80) 
1.9398127787251171

$$$$
design_10
     RDKit          3D

 56 60  0  0  0  0  0  0  0  0999 V2000
   -9.2400   -6.6781   -5.6467 C   0  0  0  0  0  0  0  0  0  0  0  0
  -10.1048   -7.7630   -5.0642 C   0  0  0  0  0  0  0  0  0  0  0  0
  -10.6308   -7.3563   -3.7722 N   0  0  0  0  0  0  0  0  0  0  0  0
   -9.8244   -7.0657   -2.7098 N   0  0  0  0  0  0  0  0  0  0  0  0
  -10.6201   -6.7056   -1.7399 N   0  0  0  0  0  0  0  0  0  0  0  0
  -11.8607   -6.7621   -2.1537 N   0  0  0  0  0  0  0  0  0  0  0  0
  -11.8956   -7.1814   -3.4656 C   0  0  0  0  0  0  0  0  0  0  0  0
  -13.1555   -7.2885   -4.1713 C   0  0  0  0  0  0  0  0  0  0  0  0
  -13.2828   -7.5892   -5.4990 C   0  0  0  0  0  0  0  0  0  0  0  0
  -14.5493   -7.6094   -6.1094 C   0  0  0  0  0  0  0  0  0  0  0  0
  -15.6865   -7.3278   -5.3814 C   0  0  0  0  0  0  0  0  0  0  0  0
  -15.5955   -7.0228   -4.0448 C   0  0  0  0  0  0  0  0  0  0  0  0
  -16.7974   -6.7096   -3.2446 C   0  0  0  0  0  0  0  0  0  0  0  0
  -17.9344   -6.9735   -3.7168 O   0  0  0  0  0  0  0  0  0  0  0  0
  -16.7085   -6.1244   -1.9683 N   0  0  0  0  0  0  0  0  0  0  0  0
  -17.8981   -5.8284   -1.2131 C   0  0  0  0  0  0  0  0  0  0  0  0
  -17.5076   -4.9830   -0.0668 C   0  0  0  0  0  0  0  0  0  0  0  0
  -16.6531   -5.4354    0.9114 C   0  0  0  0  0  0  0  0  0  0  0  0
  -16.3324   -4.5918    1.9602 C   0  0  0  0  0  0  0  0  0  0  0  0
  -16.8369   -3.3125    2.0635 C   0  0  0  0  0  0  0  0  0  0  0  0
  -17.7024   -2.8709    1.0611 C   0  0  0  0  0  0  0  0  0  0  0  0
  -18.2639   -1.4914    1.1462 C   0  0  0  0  0  0  0  0  0  0  0  0
  -18.0268   -3.7102    0.0098 C   0  0  0  0  0  0  0  0  0  0  0  0
  -14.3524   -7.0094   -3.4743 C   0  0  0  0  0  0  0  0  0  0  0  0
   -8.2815   -7.1008   -5.9479 H   0  0  0  0  0  0  0  0  0  0  0  0
   -9.7350   -6.2456   -6.5162 H   0  0  0  0  0  0  0  0  0  0  0  0
   -9.0755   -5.9028   -4.8984 H   0  0  0  0  0  0  0  0  0  0  0  0
   -9.5016   -8.6612   -4.9319 H   0  0  0  0  0  0  0  0  0  0  0  0
  -10.9339   -7.9646   -5.7424 H   0  0  0  0  0  0  0  0  0  0  0  0
  -12.3948   -7.8152   -6.0894 H   0  0  0  0  0  0  0  0  0  0  0  0
  -16.6614   -7.3473   -5.8685 H   0  0  0  0  0  0  0  0  0  0  0  0
  -15.8019   -5.9100   -1.5782 H   0  0  0  0  0  0  0  0  0  0  0  0
  -18.3659   -6.7491   -0.8644 H   0  0  0  0  0  0  0  0  0  0  0  0
  -18.6134   -5.2963   -1.8403 H   0  0  0  0  0  0  0  0  0  0  0  0
  -16.2358   -6.4411    0.8613 H   0  0  0  0  0  0  0  0  0  0  0  0
  -15.6551   -4.9522    2.7344 H   0  0  0  0  0  0  0  0  0  0  0  0
  -16.5687   -2.6674    2.9002 H   0  0  0  0  0  0  0  0  0  0  0  0
  -19.2299   -1.5234    1.6502 H   0  0  0  0  0  0  0  0  0  0  0  0
  -17.5816   -0.8549    1.7097 H   0  0  0  0  0  0  0  0  0  0  0  0
  -18.3920   -1.0880    0.1417 H   0  0  0  0  0  0  0  0  0  0  0  0
  -18.7033   -3.3584   -0.7691 H   0  0  0  0  0  0  0  0  0  0  0  0
  -14.2805   -6.7679   -2.4138 H   0  0  0  0  0  0  0  0  0  0  0  0
  -14.6329   -7.8491   -7.1643 C   0  0  0  0  0  0  0  0  0  0  0  0
  -15.7761   -8.4501   -7.6522 C   0  0  0  0  0  0  0  0  0  0  0  0
  -15.8694   -8.7451   -9.0059 C   0  0  0  0  0  0  0  0  0  0  0  0
  -14.8586   -8.4557   -9.8676 C   0  0  0  0  0  0  0  0  0  0  0  0
  -12.0037   -6.8017   -7.8388 S   0  0  0  0  0  0  0  0  0  0  0  0
  -13.6009   -7.5506   -8.0281 C   0  0  0  0  0  0  0  0  0  0  0  0
  -13.6703   -7.8399   -9.4081 C   0  0  0  0  0  0  0  0  0  0  0  0
  -12.4903   -7.4557  -10.1686 C   0  0  0  0  0  0  0  0  0  0  0  0
  -11.4600   -6.8774   -9.5347 C   0  0  0  0  0  0  0  0  0  0  0  0
  -16.5916   -8.6894   -6.9859 H   0  0  0  0  0  0  0  0  0  0  0  0
  -16.7655   -9.2155   -9.3827 H   0  0  0  0  0  0  0  0  0  0  0  0
  -14.9635   -8.6988  -10.9147 H   0  0  0  0  0  0  0  0  0  0  0  0
  -12.4452   -7.6344  -11.2328 H   0  0  0  0  0  0  0  0  0  0  0  0
  -10.5238   -6.5376   -9.9523 H   0  0  0  0  0  0  0  0  0  0  0  0
  1  2  1  0
  2  3  1  0
  3  4  1  0
  4  5  2  0
  5  6  1  0
  6  7  2  0
  7  8  1  0
  8  9  2  0
  9 10  1  0
 10 11  2  0
 11 12  1  0
 12 13  1  0
 13 14  2  0
 13 15  1  0
 15 16  1  0
 16 17  1  0
 17 18  2  0
 18 19  1  0
 19 20  2  0
 20 21  1  0
 21 22  1  0
 21 23  2  0
 12 24  2  0
  3  7  1  0
  8 24  1  0
 17 23  1  0
  1 25  1  0
  1 26  1  0
  1 27  1  0
  2 28  1  0
  2 29  1  0
  9 30  1  0
 11 31  1  0
 15 32  1  0
 16 33  1  0
 16 34  1  0
 18 35  1  0
 19 36  1  0
 20 37  1  0
 22 38  1  0
 22 39  1  0
 22 40  1  0
 23 41  1  0
 24 42  1  0
 43 44  2  0
 43 48  1  0
 44 45  1  0
 44 52  1  0
 45 46  2  0
 45 53  1  0
 46 49  1  0
 46 54  1  0
 47 48  1  0
 47 51  1  0
 48 49  2  0
 49 50  1  0
 50 51  2  0
 50 55  1  0
 51 56  1  0
 10 43  1  0
M  END
>  <CHROM.1>  (81) 
-61.21881374,-2.92414870,13.81509078,-168.53354661,-62.78859739,-14.60626922
-6.05811051,-2.36166533,-0.75171827,-0.07503907,1.05483303

>  <Name>  (81) 
design_10

>  <RI>  (81) 
37398200.000000

>  <Rbt.Current_Directory>  (81) 
/pylon5/mc5pksp/smaltr/gateway_workdirs/PROCESS_93251df5-8da2-4fa9-b874-71853b29d1ad

>  <Rbt.Executable>  (81) 
rbdock ($Id: //depot/dev/client3/rdock/2013.1/src/exe/rbdock.cxx#4 $)

>  <Rbt.Library>  (81) 
libRbt.so (2013.1, Build901 2013/11/27)

>  <Rbt.Parameter_File>  (81) 
/home/smaltr/software/rDock_2013.1_src//data/scripts/dock.prm

>  <Rbt.Receptor>  (81) 
/pylon5/mc5pksp/smaltr/gateway_workdirs/PROCESS_93251df5-8da2-4fa9-b874-71853b29d1ad/output/SnD-Target-Sep02/cavity/pocket_docking.prm

>  <SCORE>  (81) 
-18.959500

>  <SCORE.INTER>  (81) 
-19.705700

>  <SCORE.INTER.CONST>  (81) 
1

>  <SCORE.INTER.POLAR>  (81) 
-2.008240

>  <SCORE.INTER.REPUL>  (81) 
0

>  <SCORE.INTER.ROT>  (81) 
5

>  <SCORE.INTER.VDW>  (81) 
-23.277600

>  <SCORE.INTER.norm>  (81) 
-0.821069

>  <SCORE.INTRA>  (81) 
0.746124

>  <SCORE.INTRA.DIHEDRAL>  (81) 
-0.309032

>  <SCORE.INTRA.DIHEDRAL.0>  (81) 
5.396800

>  <SCORE.INTRA.POLAR>  (81) 
0

>  <SCORE.INTRA.POLAR.0>  (81) 
0

>  <SCORE.INTRA.REPUL>  (81) 
0

>  <SCORE.INTRA.REPUL.0>  (81) 
0

>  <SCORE.INTRA.VDW>  (81) 
0.900640

>  <SCORE.INTRA.VDW.0>  (81) 
-1.932270

>  <SCORE.INTRA.norm>  (81) 
0.031089

>  <SCORE.RESTR>  (81) 
0

>  <SCORE.RESTR.CAVITY>  (81) 
0

>  <SCORE.RESTR.norm>  (81) 
0

>  <SCORE.SYSTEM>  (81) 
0

>  <SCORE.SYSTEM.CONST>  (81) 
0

>  <SCORE.SYSTEM.DIHEDRAL>  (81) 
0

>  <SCORE.SYSTEM.norm>  (81) 
0

>  <SCORE.heavy>  (81) 
24

>  <SCORE.norm>  (81) 
-0.789980

>  <SMILES>  (81) 
CCn1nnnc1-c1cccc(C(=O)NCc2cccc(C)c2)c1

>  <Cycle>  (81) 
228

>  <MolWeight>  (81) 
321.384000

>  <LogP>  (81) 
2.598420

>  <QED>  (81) 
0.783778

>  <SAS>  (81) 
1.8697226741506743

$$$$
design_10
     RDKit          3D

 56 60  0  0  0  0  0  0  0  0999 V2000
   -9.2400   -6.6781   -5.6467 C   0  0  0  0  0  0  0  0  0  0  0  0
  -10.1048   -7.7630   -5.0642 C   0  0  0  0  0  0  0  0  0  0  0  0
  -10.6308   -7.3563   -3.7722 N   0  0  0  0  0  0  0  0  0  0  0  0
   -9.8244   -7.0657   -2.7098 N   0  0  0  0  0  0  0  0  0  0  0  0
  -10.6201   -6.7056   -1.7399 N   0  0  0  0  0  0  0  0  0  0  0  0
  -11.8607   -6.7621   -2.1537 N   0  0  0  0  0  0  0  0  0  0  0  0
  -11.8956   -7.1814   -3.4656 C   0  0  0  0  0  0  0  0  0  0  0  0
  -13.1555   -7.2885   -4.1713 C   0  0  0  0  0  0  0  0  0  0  0  0
  -13.2828   -7.5892   -5.4990 C   0  0  0  0  0  0  0  0  0  0  0  0
  -14.5493   -7.6094   -6.1094 C   0  0  0  0  0  0  0  0  0  0  0  0
  -15.6865   -7.3278   -5.3814 C   0  0  0  0  0  0  0  0  0  0  0  0
  -15.5955   -7.0228   -4.0448 C   0  0  0  0  0  0  0  0  0  0  0  0
  -16.7974   -6.7096   -3.2446 C   0  0  0  0  0  0  0  0  0  0  0  0
  -17.9344   -6.9735   -3.7168 O   0  0  0  0  0  0  0  0  0  0  0  0
  -16.7085   -6.1244   -1.9683 N   0  0  0  0  0  0  0  0  0  0  0  0
  -17.8981   -5.8284   -1.2131 C   0  0  0  0  0  0  0  0  0  0  0  0
  -17.5076   -4.9830   -0.0668 C   0  0  0  0  0  0  0  0  0  0  0  0
  -16.6531   -5.4354    0.9114 C   0  0  0  0  0  0  0  0  0  0  0  0
  -16.3324   -4.5918    1.9602 C   0  0  0  0  0  0  0  0  0  0  0  0
  -16.8369   -3.3125    2.0635 C   0  0  0  0  0  0  0  0  0  0  0  0
  -17.7024   -2.8709    1.0611 C   0  0  0  0  0  0  0  0  0  0  0  0
  -18.2639   -1.4914    1.1462 C   0  0  0  0  0  0  0  0  0  0  0  0
  -18.0268   -3.7102    0.0098 C   0  0  0  0  0  0  0  0  0  0  0  0
  -14.3524   -7.0094   -3.4743 C   0  0  0  0  0  0  0  0  0  0  0  0
   -8.2815   -7.1008   -5.9479 H   0  0  0  0  0  0  0  0  0  0  0  0
   -9.7350   -6.2456   -6.5162 H   0  0  0  0  0  0  0  0  0  0  0  0
   -9.0755   -5.9028   -4.8984 H   0  0  0  0  0  0  0  0  0  0  0  0
   -9.5016   -8.6612   -4.9319 H   0  0  0  0  0  0  0  0  0  0  0  0
  -10.9339   -7.9646   -5.7424 H   0  0  0  0  0  0  0  0  0  0  0  0
  -12.3948   -7.8152   -6.0894 H   0  0  0  0  0  0  0  0  0  0  0  0
  -14.6333   -7.8502   -7.1692 H   0  0  0  0  0  0  0  0  0  0  0  0
  -16.6614   -7.3473   -5.8685 H   0  0  0  0  0  0  0  0  0  0  0  0
  -15.8019   -5.9100   -1.5782 H   0  0  0  0  0  0  0  0  0  0  0  0
  -18.3659   -6.7491   -0.8644 H   0  0  0  0  0  0  0  0  0  0  0  0
  -18.6134   -5.2963   -1.8403 H   0  0  0  0  0  0  0  0  0  0  0  0
  -16.2358   -6.4411    0.8613 H   0  0  0  0  0  0  0  0  0  0  0  0
  -16.5687   -2.6674    2.9002 H   0  0  0  0  0  0  0  0  0  0  0  0
  -19.2299   -1.5234    1.6502 H   0  0  0  0  0  0  0  0  0  0  0  0
  -17.5816   -0.8549    1.7097 H   0  0  0  0  0  0  0  0  0  0  0  0
  -18.3920   -1.0880    0.1417 H   0  0  0  0  0  0  0  0  0  0  0  0
  -18.7033   -3.3584   -0.7691 H   0  0  0  0  0  0  0  0  0  0  0  0
  -14.2805   -6.7679   -2.4138 H   0  0  0  0  0  0  0  0  0  0  0  0
  -15.6582   -4.9506    2.7309 C   0  0  0  0  0  0  0  0  0  0  0  0
  -16.1602   -5.5280    3.8800 C   0  0  0  0  0  0  0  0  0  0  0  0
  -15.2836   -5.9871    4.8541 C   0  0  0  0  0  0  0  0  0  0  0  0
  -13.9365   -5.8821    4.7044 C   0  0  0  0  0  0  0  0  0  0  0  0
  -13.2485   -4.1868    1.2905 S   0  0  0  0  0  0  0  0  0  0  0  0
  -14.2940   -4.8383    2.5672 C   0  0  0  0  0  0  0  0  0  0  0  0
  -13.3814   -5.2968    3.5418 C   0  0  0  0  0  0  0  0  0  0  0  0
  -11.9802   -5.0975    3.2022 C   0  0  0  0  0  0  0  0  0  0  0  0
  -11.6633   -4.5164    2.0362 C   0  0  0  0  0  0  0  0  0  0  0  0
  -17.2269   -5.6215    4.0205 H   0  0  0  0  0  0  0  0  0  0  0  0
  -15.6812   -6.4379    5.7515 H   0  0  0  0  0  0  0  0  0  0  0  0
  -13.2827   -6.2492    5.4817 H   0  0  0  0  0  0  0  0  0  0  0  0
  -11.2036   -5.4147    3.8825 H   0  0  0  0  0  0  0  0  0  0  0  0
  -10.6813   -4.3000    1.6422 H   0  0  0  0  0  0  0  0  0  0  0  0
  1  2  1  0
  2  3  1  0
  3  4  1  0
  4  5  2  0
  5  6  1  0
  6  7  2  0
  7  8  1  0
  8  9  2  0
  9 10  1  0
 10 11  2  0
 11 12  1  0
 12 13  1  0
 13 14  2  0
 13 15  1  0
 15 16  1  0
 16 17  1  0
 17 18  2  0
 18 19  1  0
 19 20  2  0
 20 21  1  0
 21 22  1  0
 21 23  2  0
 12 24  2  0
  3  7  1  0
  8 24  1  0
 17 23  1  0
  1 25  1  0
  1 26  1  0
  1 27  1  0
  2 28  1  0
  2 29  1  0
  9 30  1  0
 10 31  1  0
 11 32  1  0
 15 33  1  0
 16 34  1  0
 16 35  1  0
 18 36  1  0
 20 37  1  0
 22 38  1  0
 22 39  1  0
 22 40  1  0
 23 41  1  0
 24 42  1  0
 43 44  2  0
 43 48  1  0
 44 45  1  0
 44 52  1  0
 45 46  2  0
 45 53  1  0
 46 49  1  0
 46 54  1  0
 47 48  1  0
 47 51  1  0
 48 49  2  0
 49 50  1  0
 50 51  2  0
 50 55  1  0
 51 56  1  0
 19 43  1  0
M  END
>  <CHROM.1>  (82) 
-61.21881374,-2.92414870,13.81509078,-168.53354661,-62.78859739,-14.60626922
-6.05811051,-2.36166533,-0.75171827,-0.07503907,1.05483303

>  <Name>  (82) 
design_10

>  <RI>  (82) 
37398200.000000

>  <Rbt.Current_Directory>  (82) 
/pylon5/mc5pksp/smaltr/gateway_workdirs/PROCESS_93251df5-8da2-4fa9-b874-71853b29d1ad

>  <Rbt.Executable>  (82) 
rbdock ($Id: //depot/dev/client3/rdock/2013.1/src/exe/rbdock.cxx#4 $)

>  <Rbt.Library>  (82) 
libRbt.so (2013.1, Build901 2013/11/27)

>  <Rbt.Parameter_File>  (82) 
/home/smaltr/software/rDock_2013.1_src//data/scripts/dock.prm

>  <Rbt.Receptor>  (82) 
/pylon5/mc5pksp/smaltr/gateway_workdirs/PROCESS_93251df5-8da2-4fa9-b874-71853b29d1ad/output/SnD-Target-Sep02/cavity/pocket_docking.prm

>  <SCORE>  (82) 
-18.959500

>  <SCORE.INTER>  (82) 
-19.705700

>  <SCORE.INTER.CONST>  (82) 
1

>  <SCORE.INTER.POLAR>  (82) 
-2.008240

>  <SCORE.INTER.REPUL>  (82) 
0

>  <SCORE.INTER.ROT>  (82) 
5

>  <SCORE.INTER.VDW>  (82) 
-23.277600

>  <SCORE.INTER.norm>  (82) 
-0.821069

>  <SCORE.INTRA>  (82) 
0.746124

>  <SCORE.INTRA.DIHEDRAL>  (82) 
-0.309032

>  <SCORE.INTRA.DIHEDRAL.0>  (82) 
5.396800

>  <SCORE.INTRA.POLAR>  (82) 
0

>  <SCORE.INTRA.POLAR.0>  (82) 
0

>  <SCORE.INTRA.REPUL>  (82) 
0

>  <SCORE.INTRA.REPUL.0>  (82) 
0

>  <SCORE.INTRA.VDW>  (82) 
0.900640

>  <SCORE.INTRA.VDW.0>  (82) 
-1.932270

>  <SCORE.INTRA.norm>  (82) 
0.031089

>  <SCORE.RESTR>  (82) 
0

>  <SCORE.RESTR.CAVITY>  (82) 
0

>  <SCORE.RESTR.norm>  (82) 
0

>  <SCORE.SYSTEM>  (82) 
0

>  <SCORE.SYSTEM.CONST>  (82) 
0

>  <SCORE.SYSTEM.DIHEDRAL>  (82) 
0

>  <SCORE.SYSTEM.norm>  (82) 
0

>  <SCORE.heavy>  (82) 
24

>  <SCORE.norm>  (82) 
-0.789980

>  <SMILES>  (82) 
CCn1nnnc1-c1cccc(C(=O)NCc2cccc(C)c2)c1

>  <Cycle>  (82) 
228

>  <MolWeight>  (82) 
321.384000

>  <LogP>  (82) 
2.598420

>  <QED>  (82) 
0.783778

>  <SAS>  (82) 
1.8697226741514905

$$$$
design_10
     RDKit          3D

 56 60  0  0  0  0  0  0  0  0999 V2000
   -9.2400   -6.6781   -5.6467 C   0  0  0  0  0  0  0  0  0  0  0  0
  -10.1048   -7.7630   -5.0642 C   0  0  0  0  0  0  0  0  0  0  0  0
  -10.6308   -7.3563   -3.7722 N   0  0  0  0  0  0  0  0  0  0  0  0
   -9.8244   -7.0657   -2.7098 N   0  0  0  0  0  0  0  0  0  0  0  0
  -10.6201   -6.7056   -1.7399 N   0  0  0  0  0  0  0  0  0  0  0  0
  -11.8607   -6.7621   -2.1537 N   0  0  0  0  0  0  0  0  0  0  0  0
  -11.8956   -7.1814   -3.4656 C   0  0  0  0  0  0  0  0  0  0  0  0
  -13.1555   -7.2885   -4.1713 C   0  0  0  0  0  0  0  0  0  0  0  0
  -13.2828   -7.5892   -5.4990 C   0  0  0  0  0  0  0  0  0  0  0  0
  -14.5493   -7.6094   -6.1094 C   0  0  0  0  0  0  0  0  0  0  0  0
  -15.6865   -7.3278   -5.3814 C   0  0  0  0  0  0  0  0  0  0  0  0
  -15.5955   -7.0228   -4.0448 C   0  0  0  0  0  0  0  0  0  0  0  0
  -16.7974   -6.7096   -3.2446 C   0  0  0  0  0  0  0  0  0  0  0  0
  -17.9344   -6.9735   -3.7168 O   0  0  0  0  0  0  0  0  0  0  0  0
  -16.7085   -6.1244   -1.9683 N   0  0  0  0  0  0  0  0  0  0  0  0
  -17.8981   -5.8284   -1.2131 C   0  0  0  0  0  0  0  0  0  0  0  0
  -17.5076   -4.9830   -0.0668 C   0  0  0  0  0  0  0  0  0  0  0  0
  -16.6531   -5.4354    0.9114 C   0  0  0  0  0  0  0  0  0  0  0  0
  -16.3324   -4.5918    1.9602 C   0  0  0  0  0  0  0  0  0  0  0  0
  -16.8369   -3.3125    2.0635 C   0  0  0  0  0  0  0  0  0  0  0  0
  -17.7024   -2.8709    1.0611 C   0  0  0  0  0  0  0  0  0  0  0  0
  -18.2639   -1.4914    1.1462 C   0  0  0  0  0  0  0  0  0  0  0  0
  -18.0268   -3.7102    0.0098 C   0  0  0  0  0  0  0  0  0  0  0  0
  -14.3524   -7.0094   -3.4743 C   0  0  0  0  0  0  0  0  0  0  0  0
   -8.2815   -7.1008   -5.9479 H   0  0  0  0  0  0  0  0  0  0  0  0
   -9.7350   -6.2456   -6.5162 H   0  0  0  0  0  0  0  0  0  0  0  0
   -9.0755   -5.9028   -4.8984 H   0  0  0  0  0  0  0  0  0  0  0  0
   -9.5016   -8.6612   -4.9319 H   0  0  0  0  0  0  0  0  0  0  0  0
  -10.9339   -7.9646   -5.7424 H   0  0  0  0  0  0  0  0  0  0  0  0
  -12.3948   -7.8152   -6.0894 H   0  0  0  0  0  0  0  0  0  0  0  0
  -14.6333   -7.8502   -7.1692 H   0  0  0  0  0  0  0  0  0  0  0  0
  -15.8019   -5.9100   -1.5782 H   0  0  0  0  0  0  0  0  0  0  0  0
  -18.3659   -6.7491   -0.8644 H   0  0  0  0  0  0  0  0  0  0  0  0
  -18.6134   -5.2963   -1.8403 H   0  0  0  0  0  0  0  0  0  0  0  0
  -16.2358   -6.4411    0.8613 H   0  0  0  0  0  0  0  0  0  0  0  0
  -15.6551   -4.9522    2.7344 H   0  0  0  0  0  0  0  0  0  0  0  0
  -16.5687   -2.6674    2.9002 H   0  0  0  0  0  0  0  0  0  0  0  0
  -19.2299   -1.5234    1.6502 H   0  0  0  0  0  0  0  0  0  0  0  0
  -17.5816   -0.8549    1.7097 H   0  0  0  0  0  0  0  0  0  0  0  0
  -18.3920   -1.0880    0.1417 H   0  0  0  0  0  0  0  0  0  0  0  0
  -18.7033   -3.3584   -0.7691 H   0  0  0  0  0  0  0  0  0  0  0  0
  -14.2805   -6.7679   -2.4138 H   0  0  0  0  0  0  0  0  0  0  0  0
  -16.6569   -7.3472   -5.8663 C   0  0  0  0  0  0  0  0  0  0  0  0
  -17.5963   -6.3766   -5.5807 C   0  0  0  0  0  0  0  0  0  0  0  0
  -18.8315   -6.4126   -6.2142 C   0  0  0  0  0  0  0  0  0  0  0  0
  -19.1410   -7.3842   -7.1132 C   0  0  0  0  0  0  0  0  0  0  0  0
  -16.0797   -9.7368   -7.4223 S   0  0  0  0  0  0  0  0  0  0  0  0
  -16.9588   -8.3379   -6.7761 C   0  0  0  0  0  0  0  0  0  0  0  0
  -18.2065   -8.3973   -7.4338 C   0  0  0  0  0  0  0  0  0  0  0  0
  -18.3512   -9.5100   -8.3609 C   0  0  0  0  0  0  0  0  0  0  0  0
  -17.3332  -10.3677   -8.5214 C   0  0  0  0  0  0  0  0  0  0  0  0
  -17.3723   -5.5953   -4.8695 H   0  0  0  0  0  0  0  0  0  0  0  0
  -19.5631   -5.6513   -5.9872 H   0  0  0  0  0  0  0  0  0  0  0  0
  -20.1112   -7.3831   -7.5877 H   0  0  0  0  0  0  0  0  0  0  0  0
  -19.2692   -9.6433   -8.9141 H   0  0  0  0  0  0  0  0  0  0  0  0
  -17.2841  -11.2341   -9.1642 H   0  0  0  0  0  0  0  0  0  0  0  0
  1  2  1  0
  2  3  1  0
  3  4  1  0
  4  5  2  0
  5  6  1  0
  6  7  2  0
  7  8  1  0
  8  9  2  0
  9 10  1  0
 10 11  2  0
 11 12  1  0
 12 13  1  0
 13 14  2  0
 13 15  1  0
 15 16  1  0
 16 17  1  0
 17 18  2  0
 18 19  1  0
 19 20  2  0
 20 21  1  0
 21 22  1  0
 21 23  2  0
 12 24  2  0
  3  7  1  0
  8 24  1  0
 17 23  1  0
  1 25  1  0
  1 26  1  0
  1 27  1  0
  2 28  1  0
  2 29  1  0
  9 30  1  0
 10 31  1  0
 15 32  1  0
 16 33  1  0
 16 34  1  0
 18 35  1  0
 19 36  1  0
 20 37  1  0
 22 38  1  0
 22 39  1  0
 22 40  1  0
 23 41  1  0
 24 42  1  0
 43 44  2  0
 43 48  1  0
 44 45  1  0
 44 52  1  0
 45 46  2  0
 45 53  1  0
 46 49  1  0
 46 54  1  0
 47 48  1  0
 47 51  1  0
 48 49  2  0
 49 50  1  0
 50 51  2  0
 50 55  1  0
 51 56  1  0
 11 43  1  0
M  END
>  <CHROM.1>  (83) 
-61.21881374,-2.92414870,13.81509078,-168.53354661,-62.78859739,-14.60626922
-6.05811051,-2.36166533,-0.75171827,-0.07503907,1.05483303

>  <Name>  (83) 
design_10

>  <RI>  (83) 
37398200.000000

>  <Rbt.Current_Directory>  (83) 
/pylon5/mc5pksp/smaltr/gateway_workdirs/PROCESS_93251df5-8da2-4fa9-b874-71853b29d1ad

>  <Rbt.Executable>  (83) 
rbdock ($Id: //depot/dev/client3/rdock/2013.1/src/exe/rbdock.cxx#4 $)

>  <Rbt.Library>  (83) 
libRbt.so (2013.1, Build901 2013/11/27)

>  <Rbt.Parameter_File>  (83) 
/home/smaltr/software/rDock_2013.1_src//data/scripts/dock.prm

>  <Rbt.Receptor>  (83) 
/pylon5/mc5pksp/smaltr/gateway_workdirs/PROCESS_93251df5-8da2-4fa9-b874-71853b29d1ad/output/SnD-Target-Sep02/cavity/pocket_docking.prm

>  <SCORE>  (83) 
-18.959500

>  <SCORE.INTER>  (83) 
-19.705700

>  <SCORE.INTER.CONST>  (83) 
1

>  <SCORE.INTER.POLAR>  (83) 
-2.008240

>  <SCORE.INTER.REPUL>  (83) 
0

>  <SCORE.INTER.ROT>  (83) 
5

>  <SCORE.INTER.VDW>  (83) 
-23.277600

>  <SCORE.INTER.norm>  (83) 
-0.821069

>  <SCORE.INTRA>  (83) 
0.746124

>  <SCORE.INTRA.DIHEDRAL>  (83) 
-0.309032

>  <SCORE.INTRA.DIHEDRAL.0>  (83) 
5.396800

>  <SCORE.INTRA.POLAR>  (83) 
0

>  <SCORE.INTRA.POLAR.0>  (83) 
0

>  <SCORE.INTRA.REPUL>  (83) 
0

>  <SCORE.INTRA.REPUL.0>  (83) 
0

>  <SCORE.INTRA.VDW>  (83) 
0.900640

>  <SCORE.INTRA.VDW.0>  (83) 
-1.932270

>  <SCORE.INTRA.norm>  (83) 
0.031089

>  <SCORE.RESTR>  (83) 
0

>  <SCORE.RESTR.CAVITY>  (83) 
0

>  <SCORE.RESTR.norm>  (83) 
0

>  <SCORE.SYSTEM>  (83) 
0

>  <SCORE.SYSTEM.CONST>  (83) 
0

>  <SCORE.SYSTEM.DIHEDRAL>  (83) 
0

>  <SCORE.SYSTEM.norm>  (83) 
0

>  <SCORE.heavy>  (83) 
24

>  <SCORE.norm>  (83) 
-0.789980

>  <SMILES>  (83) 
CCn1nnnc1-c1cccc(C(=O)NCc2cccc(C)c2)c1

>  <Cycle>  (83) 
228

>  <MolWeight>  (83) 
321.384000

>  <LogP>  (83) 
2.598420

>  <QED>  (83) 
0.783778

>  <SAS>  (83) 
1.8697226741506743

$$$$
design_10
     RDKit          3D

 56 60  0  0  0  0  0  0  0  0999 V2000
   -9.2400   -6.6781   -5.6467 C   0  0  0  0  0  0  0  0  0  0  0  0
  -10.1048   -7.7630   -5.0642 C   0  0  0  0  0  0  0  0  0  0  0  0
  -10.6308   -7.3563   -3.7722 N   0  0  0  0  0  0  0  0  0  0  0  0
   -9.8244   -7.0657   -2.7098 N   0  0  0  0  0  0  0  0  0  0  0  0
  -10.6201   -6.7056   -1.7399 N   0  0  0  0  0  0  0  0  0  0  0  0
  -11.8607   -6.7621   -2.1537 N   0  0  0  0  0  0  0  0  0  0  0  0
  -11.8956   -7.1814   -3.4656 C   0  0  0  0  0  0  0  0  0  0  0  0
  -13.1555   -7.2885   -4.1713 C   0  0  0  0  0  0  0  0  0  0  0  0
  -13.2828   -7.5892   -5.4990 C   0  0  0  0  0  0  0  0  0  0  0  0
  -14.5493   -7.6094   -6.1094 C   0  0  0  0  0  0  0  0  0  0  0  0
  -15.6865   -7.3278   -5.3814 C   0  0  0  0  0  0  0  0  0  0  0  0
  -15.5955   -7.0228   -4.0448 C   0  0  0  0  0  0  0  0  0  0  0  0
  -16.7974   -6.7096   -3.2446 C   0  0  0  0  0  0  0  0  0  0  0  0
  -17.9344   -6.9735   -3.7168 O   0  0  0  0  0  0  0  0  0  0  0  0
  -16.7085   -6.1244   -1.9683 N   0  0  0  0  0  0  0  0  0  0  0  0
  -17.8981   -5.8284   -1.2131 C   0  0  0  0  0  0  0  0  0  0  0  0
  -17.5076   -4.9830   -0.0668 C   0  0  0  0  0  0  0  0  0  0  0  0
  -16.6531   -5.4354    0.9114 C   0  0  0  0  0  0  0  0  0  0  0  0
  -16.3324   -4.5918    1.9602 C   0  0  0  0  0  0  0  0  0  0  0  0
  -16.8369   -3.3125    2.0635 C   0  0  0  0  0  0  0  0  0  0  0  0
  -17.7024   -2.8709    1.0611 C   0  0  0  0  0  0  0  0  0  0  0  0
  -18.2639   -1.4914    1.1462 C   0  0  0  0  0  0  0  0  0  0  0  0
  -18.0268   -3.7102    0.0098 C   0  0  0  0  0  0  0  0  0  0  0  0
  -14.3524   -7.0094   -3.4743 C   0  0  0  0  0  0  0  0  0  0  0  0
   -8.2815   -7.1008   -5.9479 H   0  0  0  0  0  0  0  0  0  0  0  0
   -9.7350   -6.2456   -6.5162 H   0  0  0  0  0  0  0  0  0  0  0  0
   -9.0755   -5.9028   -4.8984 H   0  0  0  0  0  0  0  0  0  0  0  0
   -9.5016   -8.6612   -4.9319 H   0  0  0  0  0  0  0  0  0  0  0  0
  -10.9339   -7.9646   -5.7424 H   0  0  0  0  0  0  0  0  0  0  0  0
  -14.6333   -7.8502   -7.1692 H   0  0  0  0  0  0  0  0  0  0  0  0
  -16.6614   -7.3473   -5.8685 H   0  0  0  0  0  0  0  0  0  0  0  0
  -15.8019   -5.9100   -1.5782 H   0  0  0  0  0  0  0  0  0  0  0  0
  -18.3659   -6.7491   -0.8644 H   0  0  0  0  0  0  0  0  0  0  0  0
  -18.6134   -5.2963   -1.8403 H   0  0  0  0  0  0  0  0  0  0  0  0
  -16.2358   -6.4411    0.8613 H   0  0  0  0  0  0  0  0  0  0  0  0
  -15.6551   -4.9522    2.7344 H   0  0  0  0  0  0  0  0  0  0  0  0
  -16.5687   -2.6674    2.9002 H   0  0  0  0  0  0  0  0  0  0  0  0
  -19.2299   -1.5234    1.6502 H   0  0  0  0  0  0  0  0  0  0  0  0
  -17.5816   -0.8549    1.7097 H   0  0  0  0  0  0  0  0  0  0  0  0
  -18.3920   -1.0880    0.1417 H   0  0  0  0  0  0  0  0  0  0  0  0
  -18.7033   -3.3584   -0.7691 H   0  0  0  0  0  0  0  0  0  0  0  0
  -14.2805   -6.7679   -2.4138 H   0  0  0  0  0  0  0  0  0  0  0  0
  -12.3989   -7.8142   -6.0867 C   0  0  0  0  0  0  0  0  0  0  0  0
  -12.5239   -8.3403   -7.3570 C   0  0  0  0  0  0  0  0  0  0  0  0
  -11.3828   -8.6173   -8.0981 C   0  0  0  0  0  0  0  0  0  0  0  0
  -10.1390   -8.3823   -7.6023 C   0  0  0  0  0  0  0  0  0  0  0  0
  -10.5368   -6.9227   -4.0367 S   0  0  0  0  0  0  0  0  0  0  0  0
  -11.1430   -7.5714   -5.5726 C   0  0  0  0  0  0  0  0  0  0  0  0
   -9.9673   -7.8439   -6.3049 C   0  0  0  0  0  0  0  0  0  0  0  0
   -8.7304   -7.5255   -5.6070 C   0  0  0  0  0  0  0  0  0  0  0  0
   -8.7878   -7.0165   -4.3679 C   0  0  0  0  0  0  0  0  0  0  0  0
  -13.5021   -8.5354   -7.7710 H   0  0  0  0  0  0  0  0  0  0  0  0
  -11.4858   -9.0290   -9.0912 H   0  0  0  0  0  0  0  0  0  0  0  0
   -9.2722   -8.6095   -8.2051 H   0  0  0  0  0  0  0  0  0  0  0  0
   -7.7760   -7.6973   -6.0825 H   0  0  0  0  0  0  0  0  0  0  0  0
   -7.9692   -6.7306   -3.7240 H   0  0  0  0  0  0  0  0  0  0  0  0
  1  2  1  0
  2  3  1  0
  3  4  1  0
  4  5  2  0
  5  6  1  0
  6  7  2  0
  7  8  1  0
  8  9  1  0
  9 10  2  0
 10 11  1  0
 11 12  2  0
 12 13  1  0
 13 14  2  0
 13 15  1  0
 15 16  1  0
 16 17  1  0
 17 18  2  0
 18 19  1  0
 19 20  2  0
 20 21  1  0
 21 22  1  0
 21 23  2  0
 12 24  1  0
  3  7  1  0
  8 24  2  0
 17 23  1  0
  1 25  1  0
  1 26  1  0
  1 27  1  0
  2 28  1  0
  2 29  1  0
 10 30  1  0
 11 31  1  0
 15 32  1  0
 16 33  1  0
 16 34  1  0
 18 35  1  0
 19 36  1  0
 20 37  1  0
 22 38  1  0
 22 39  1  0
 22 40  1  0
 23 41  1  0
 24 42  1  0
 43 44  2  0
 43 48  1  0
 44 45  1  0
 44 52  1  0
 45 46  2  0
 45 53  1  0
 46 49  1  0
 46 54  1  0
 47 48  1  0
 47 51  1  0
 48 49  2  0
 49 50  1  0
 50 51  2  0
 50 55  1  0
 51 56  1  0
  9 43  1  0
M  END
>  <CHROM.1>  (84) 
-61.21881374,-2.92414870,13.81509078,-168.53354661,-62.78859739,-14.60626922
-6.05811051,-2.36166533,-0.75171827,-0.07503907,1.05483303

>  <Name>  (84) 
design_10

>  <RI>  (84) 
37398200.000000

>  <Rbt.Current_Directory>  (84) 
/pylon5/mc5pksp/smaltr/gateway_workdirs/PROCESS_93251df5-8da2-4fa9-b874-71853b29d1ad

>  <Rbt.Executable>  (84) 
rbdock ($Id: //depot/dev/client3/rdock/2013.1/src/exe/rbdock.cxx#4 $)

>  <Rbt.Library>  (84) 
libRbt.so (2013.1, Build901 2013/11/27)

>  <Rbt.Parameter_File>  (84) 
/home/smaltr/software/rDock_2013.1_src//data/scripts/dock.prm

>  <Rbt.Receptor>  (84) 
/pylon5/mc5pksp/smaltr/gateway_workdirs/PROCESS_93251df5-8da2-4fa9-b874-71853b29d1ad/output/SnD-Target-Sep02/cavity/pocket_docking.prm

>  <SCORE>  (84) 
-18.959500

>  <SCORE.INTER>  (84) 
-19.705700

>  <SCORE.INTER.CONST>  (84) 
1

>  <SCORE.INTER.POLAR>  (84) 
-2.008240

>  <SCORE.INTER.REPUL>  (84) 
0

>  <SCORE.INTER.ROT>  (84) 
5

>  <SCORE.INTER.VDW>  (84) 
-23.277600

>  <SCORE.INTER.norm>  (84) 
-0.821069

>  <SCORE.INTRA>  (84) 
0.746124

>  <SCORE.INTRA.DIHEDRAL>  (84) 
-0.309032

>  <SCORE.INTRA.DIHEDRAL.0>  (84) 
5.396800

>  <SCORE.INTRA.POLAR>  (84) 
0

>  <SCORE.INTRA.POLAR.0>  (84) 
0

>  <SCORE.INTRA.REPUL>  (84) 
0

>  <SCORE.INTRA.REPUL.0>  (84) 
0

>  <SCORE.INTRA.VDW>  (84) 
0.900640

>  <SCORE.INTRA.VDW.0>  (84) 
-1.932270

>  <SCORE.INTRA.norm>  (84) 
0.031089

>  <SCORE.RESTR>  (84) 
0

>  <SCORE.RESTR.CAVITY>  (84) 
0

>  <SCORE.RESTR.norm>  (84) 
0

>  <SCORE.SYSTEM>  (84) 
0

>  <SCORE.SYSTEM.CONST>  (84) 
0

>  <SCORE.SYSTEM.DIHEDRAL>  (84) 
0

>  <SCORE.SYSTEM.norm>  (84) 
0

>  <SCORE.heavy>  (84) 
24

>  <SCORE.norm>  (84) 
-0.789980

>  <SMILES>  (84) 
CCn1nnnc1-c1cccc(C(=O)NCc2cccc(C)c2)c1

>  <Cycle>  (84) 
228

>  <MolWeight>  (84) 
321.384000

>  <LogP>  (84) 
2.598420

>  <QED>  (84) 
0.783778

>  <SAS>  (84) 
1.8697226741506743

$$$$
design_10
     RDKit          3D

 56 60  0  0  0  0  0  0  0  0999 V2000
   -9.2400   -6.6781   -5.6467 C   0  0  0  0  0  0  0  0  0  0  0  0
  -10.1048   -7.7630   -5.0642 C   0  0  0  0  0  0  0  0  0  0  0  0
  -10.6308   -7.3563   -3.7722 N   0  0  0  0  0  0  0  0  0  0  0  0
   -9.8244   -7.0657   -2.7098 N   0  0  0  0  0  0  0  0  0  0  0  0
  -10.6201   -6.7056   -1.7399 N   0  0  0  0  0  0  0  0  0  0  0  0
  -11.8607   -6.7621   -2.1537 N   0  0  0  0  0  0  0  0  0  0  0  0
  -11.8956   -7.1814   -3.4656 C   0  0  0  0  0  0  0  0  0  0  0  0
  -13.1555   -7.2885   -4.1713 C   0  0  0  0  0  0  0  0  0  0  0  0
  -13.2828   -7.5892   -5.4990 C   0  0  0  0  0  0  0  0  0  0  0  0
  -14.5493   -7.6094   -6.1094 C   0  0  0  0  0  0  0  0  0  0  0  0
  -15.6865   -7.3278   -5.3814 C   0  0  0  0  0  0  0  0  0  0  0  0
  -15.5955   -7.0228   -4.0448 C   0  0  0  0  0  0  0  0  0  0  0  0
  -16.7974   -6.7096   -3.2446 C   0  0  0  0  0  0  0  0  0  0  0  0
  -17.9344   -6.9735   -3.7168 O   0  0  0  0  0  0  0  0  0  0  0  0
  -16.7085   -6.1244   -1.9683 N   0  0  0  0  0  0  0  0  0  0  0  0
  -17.8981   -5.8284   -1.2131 C   0  0  0  0  0  0  0  0  0  0  0  0
  -17.5076   -4.9830   -0.0668 C   0  0  0  0  0  0  0  0  0  0  0  0
  -16.6531   -5.4354    0.9114 C   0  0  0  0  0  0  0  0  0  0  0  0
  -16.3324   -4.5918    1.9602 C   0  0  0  0  0  0  0  0  0  0  0  0
  -16.8369   -3.3125    2.0635 C   0  0  0  0  0  0  0  0  0  0  0  0
  -17.7024   -2.8709    1.0611 C   0  0  0  0  0  0  0  0  0  0  0  0
  -18.2639   -1.4914    1.1462 C   0  0  0  0  0  0  0  0  0  0  0  0
  -18.0268   -3.7102    0.0098 C   0  0  0  0  0  0  0  0  0  0  0  0
  -14.3524   -7.0094   -3.4743 C   0  0  0  0  0  0  0  0  0  0  0  0
   -8.2815   -7.1008   -5.9479 H   0  0  0  0  0  0  0  0  0  0  0  0
   -9.7350   -6.2456   -6.5162 H   0  0  0  0  0  0  0  0  0  0  0  0
   -9.0755   -5.9028   -4.8984 H   0  0  0  0  0  0  0  0  0  0  0  0
   -9.5016   -8.6612   -4.9319 H   0  0  0  0  0  0  0  0  0  0  0  0
  -10.9339   -7.9646   -5.7424 H   0  0  0  0  0  0  0  0  0  0  0  0
  -12.3948   -7.8152   -6.0894 H   0  0  0  0  0  0  0  0  0  0  0  0
  -14.6333   -7.8502   -7.1692 H   0  0  0  0  0  0  0  0  0  0  0  0
  -16.6614   -7.3473   -5.8685 H   0  0  0  0  0  0  0  0  0  0  0  0
  -15.8019   -5.9100   -1.5782 H   0  0  0  0  0  0  0  0  0  0  0  0
  -18.3659   -6.7491   -0.8644 H   0  0  0  0  0  0  0  0  0  0  0  0
  -18.6134   -5.2963   -1.8403 H   0  0  0  0  0  0  0  0  0  0  0  0
  -16.2358   -6.4411    0.8613 H   0  0  0  0  0  0  0  0  0  0  0  0
  -15.6551   -4.9522    2.7344 H   0  0  0  0  0  0  0  0  0  0  0  0
  -16.5687   -2.6674    2.9002 H   0  0  0  0  0  0  0  0  0  0  0  0
  -19.2299   -1.5234    1.6502 H   0  0  0  0  0  0  0  0  0  0  0  0
  -17.5816   -0.8549    1.7097 H   0  0  0  0  0  0  0  0  0  0  0  0
  -18.3920   -1.0880    0.1417 H   0  0  0  0  0  0  0  0  0  0  0  0
  -18.7033   -3.3584   -0.7691 H   0  0  0  0  0  0  0  0  0  0  0  0
  -14.2808   -6.7690   -2.4187 C   0  0  0  0  0  0  0  0  0  0  0  0
  -15.3519   -6.1970   -1.7617 C   0  0  0  0  0  0  0  0  0  0  0  0
  -15.2459   -5.9007   -0.4092 C   0  0  0  0  0  0  0  0  0  0  0  0
  -14.1085   -6.1609    0.2882 C   0  0  0  0  0  0  0  0  0  0  0  0
  -11.5527   -7.7447   -2.1535 S   0  0  0  0  0  0  0  0  0  0  0  0
  -13.1218   -7.0377   -1.7224 C   0  0  0  0  0  0  0  0  0  0  0  0
  -12.9881   -6.7465   -0.3476 C   0  0  0  0  0  0  0  0  0  0  0  0
  -11.6963   -7.0972    0.2240 C   0  0  0  0  0  0  0  0  0  0  0  0
  -10.7595   -7.6499   -0.5600 C   0  0  0  0  0  0  0  0  0  0  0  0
  -16.2654   -5.9812   -2.2959 H   0  0  0  0  0  0  0  0  0  0  0  0
  -16.0865   -5.4531    0.1001 H   0  0  0  0  0  0  0  0  0  0  0  0
  -14.0593   -5.9177    1.3394 H   0  0  0  0  0  0  0  0  0  0  0  0
  -11.4945   -6.9144    1.2692 H   0  0  0  0  0  0  0  0  0  0  0  0
   -9.7620   -7.9636   -0.2902 H   0  0  0  0  0  0  0  0  0  0  0  0
  1  2  1  0
  2  3  1  0
  3  4  1  0
  4  5  2  0
  5  6  1  0
  6  7  2  0
  7  8  1  0
  8  9  2  0
  9 10  1  0
 10 11  2  0
 11 12  1  0
 12 13  1  0
 13 14  2  0
 13 15  1  0
 15 16  1  0
 16 17  1  0
 17 18  2  0
 18 19  1  0
 19 20  2  0
 20 21  1  0
 21 22  1  0
 21 23  2  0
 12 24  2  0
  3  7  1  0
  8 24  1  0
 17 23  1  0
  1 25  1  0
  1 26  1  0
  1 27  1  0
  2 28  1  0
  2 29  1  0
  9 30  1  0
 10 31  1  0
 11 32  1  0
 15 33  1  0
 16 34  1  0
 16 35  1  0
 18 36  1  0
 19 37  1  0
 20 38  1  0
 22 39  1  0
 22 40  1  0
 22 41  1  0
 23 42  1  0
 43 44  2  0
 43 48  1  0
 44 45  1  0
 44 52  1  0
 45 46  2  0
 45 53  1  0
 46 49  1  0
 46 54  1  0
 47 48  1  0
 47 51  1  0
 48 49  2  0
 49 50  1  0
 50 51  2  0
 50 55  1  0
 51 56  1  0
 24 43  1  0
M  END
>  <CHROM.1>  (85) 
-61.21881374,-2.92414870,13.81509078,-168.53354661,-62.78859739,-14.60626922
-6.05811051,-2.36166533,-0.75171827,-0.07503907,1.05483303

>  <Name>  (85) 
design_10

>  <RI>  (85) 
37398200.000000

>  <Rbt.Current_Directory>  (85) 
/pylon5/mc5pksp/smaltr/gateway_workdirs/PROCESS_93251df5-8da2-4fa9-b874-71853b29d1ad

>  <Rbt.Executable>  (85) 
rbdock ($Id: //depot/dev/client3/rdock/2013.1/src/exe/rbdock.cxx#4 $)

>  <Rbt.Library>  (85) 
libRbt.so (2013.1, Build901 2013/11/27)

>  <Rbt.Parameter_File>  (85) 
/home/smaltr/software/rDock_2013.1_src//data/scripts/dock.prm

>  <Rbt.Receptor>  (85) 
/pylon5/mc5pksp/smaltr/gateway_workdirs/PROCESS_93251df5-8da2-4fa9-b874-71853b29d1ad/output/SnD-Target-Sep02/cavity/pocket_docking.prm

>  <SCORE>  (85) 
-18.959500

>  <SCORE.INTER>  (85) 
-19.705700

>  <SCORE.INTER.CONST>  (85) 
1

>  <SCORE.INTER.POLAR>  (85) 
-2.008240

>  <SCORE.INTER.REPUL>  (85) 
0

>  <SCORE.INTER.ROT>  (85) 
5

>  <SCORE.INTER.VDW>  (85) 
-23.277600

>  <SCORE.INTER.norm>  (85) 
-0.821069

>  <SCORE.INTRA>  (85) 
0.746124

>  <SCORE.INTRA.DIHEDRAL>  (85) 
-0.309032

>  <SCORE.INTRA.DIHEDRAL.0>  (85) 
5.396800

>  <SCORE.INTRA.POLAR>  (85) 
0

>  <SCORE.INTRA.POLAR.0>  (85) 
0

>  <SCORE.INTRA.REPUL>  (85) 
0

>  <SCORE.INTRA.REPUL.0>  (85) 
0

>  <SCORE.INTRA.VDW>  (85) 
0.900640

>  <SCORE.INTRA.VDW.0>  (85) 
-1.932270

>  <SCORE.INTRA.norm>  (85) 
0.031089

>  <SCORE.RESTR>  (85) 
0

>  <SCORE.RESTR.CAVITY>  (85) 
0

>  <SCORE.RESTR.norm>  (85) 
0

>  <SCORE.SYSTEM>  (85) 
0

>  <SCORE.SYSTEM.CONST>  (85) 
0

>  <SCORE.SYSTEM.DIHEDRAL>  (85) 
0

>  <SCORE.SYSTEM.norm>  (85) 
0

>  <SCORE.heavy>  (85) 
24

>  <SCORE.norm>  (85) 
-0.789980

>  <SMILES>  (85) 
CCn1nnnc1-c1cccc(C(=O)NCc2cccc(C)c2)c1

>  <Cycle>  (85) 
228

>  <MolWeight>  (85) 
321.384000

>  <LogP>  (85) 
2.598420

>  <QED>  (85) 
0.783778

>  <SAS>  (85) 
1.8697226741506743

$$$$
design_10
     RDKit          3D

 56 60  0  0  0  0  0  0  0  0999 V2000
   -9.2400   -6.6781   -5.6467 C   0  0  0  0  0  0  0  0  0  0  0  0
  -10.1048   -7.7630   -5.0642 C   0  0  0  0  0  0  0  0  0  0  0  0
  -10.6308   -7.3563   -3.7722 N   0  0  0  0  0  0  0  0  0  0  0  0
   -9.8244   -7.0657   -2.7098 N   0  0  0  0  0  0  0  0  0  0  0  0
  -10.6201   -6.7056   -1.7399 N   0  0  0  0  0  0  0  0  0  0  0  0
  -11.8607   -6.7621   -2.1537 N   0  0  0  0  0  0  0  0  0  0  0  0
  -11.8956   -7.1814   -3.4656 C   0  0  0  0  0  0  0  0  0  0  0  0
  -13.1555   -7.2885   -4.1713 C   0  0  0  0  0  0  0  0  0  0  0  0
  -13.2828   -7.5892   -5.4990 C   0  0  0  0  0  0  0  0  0  0  0  0
  -14.5493   -7.6094   -6.1094 C   0  0  0  0  0  0  0  0  0  0  0  0
  -15.6865   -7.3278   -5.3814 C   0  0  0  0  0  0  0  0  0  0  0  0
  -15.5955   -7.0228   -4.0448 C   0  0  0  0  0  0  0  0  0  0  0  0
  -16.7974   -6.7096   -3.2446 C   0  0  0  0  0  0  0  0  0  0  0  0
  -17.9344   -6.9735   -3.7168 O   0  0  0  0  0  0  0  0  0  0  0  0
  -16.7085   -6.1244   -1.9683 N   0  0  0  0  0  0  0  0  0  0  0  0
  -17.8981   -5.8284   -1.2131 C   0  0  0  0  0  0  0  0  0  0  0  0
  -17.5076   -4.9830   -0.0668 C   0  0  0  0  0  0  0  0  0  0  0  0
  -16.6531   -5.4354    0.9114 C   0  0  0  0  0  0  0  0  0  0  0  0
  -16.3324   -4.5918    1.9602 C   0  0  0  0  0  0  0  0  0  0  0  0
  -16.8369   -3.3125    2.0635 C   0  0  0  0  0  0  0  0  0  0  0  0
  -17.7024   -2.8709    1.0611 C   0  0  0  0  0  0  0  0  0  0  0  0
  -18.2639   -1.4914    1.1462 C   0  0  0  0  0  0  0  0  0  0  0  0
  -18.0268   -3.7102    0.0098 C   0  0  0  0  0  0  0  0  0  0  0  0
  -14.3524   -7.0094   -3.4743 C   0  0  0  0  0  0  0  0  0  0  0  0
   -8.2815   -7.1008   -5.9479 H   0  0  0  0  0  0  0  0  0  0  0  0
   -9.7350   -6.2456   -6.5162 H   0  0  0  0  0  0  0  0  0  0  0  0
   -9.0755   -5.9028   -4.8984 H   0  0  0  0  0  0  0  0  0  0  0  0
   -9.5016   -8.6612   -4.9319 H   0  0  0  0  0  0  0  0  0  0  0  0
  -10.9339   -7.9646   -5.7424 H   0  0  0  0  0  0  0  0  0  0  0  0
  -12.3948   -7.8152   -6.0894 H   0  0  0  0  0  0  0  0  0  0  0  0
  -14.6333   -7.8502   -7.1692 H   0  0  0  0  0  0  0  0  0  0  0  0
  -16.6614   -7.3473   -5.8685 H   0  0  0  0  0  0  0  0  0  0  0  0
  -15.8019   -5.9100   -1.5782 H   0  0  0  0  0  0  0  0  0  0  0  0
  -18.3659   -6.7491   -0.8644 H   0  0  0  0  0  0  0  0  0  0  0  0
  -18.6134   -5.2963   -1.8403 H   0  0  0  0  0  0  0  0  0  0  0  0
  -16.2358   -6.4411    0.8613 H   0  0  0  0  0  0  0  0  0  0  0  0
  -15.6551   -4.9522    2.7344 H   0  0  0  0  0  0  0  0  0  0  0  0
  -19.2299   -1.5234    1.6502 H   0  0  0  0  0  0  0  0  0  0  0  0
  -17.5816   -0.8549    1.7097 H   0  0  0  0  0  0  0  0  0  0  0  0
  -18.3920   -1.0880    0.1417 H   0  0  0  0  0  0  0  0  0  0  0  0
  -18.7033   -3.3584   -0.7691 H   0  0  0  0  0  0  0  0  0  0  0  0
  -14.2805   -6.7679   -2.4138 H   0  0  0  0  0  0  0  0  0  0  0  0
  -16.5699   -2.6704    2.8964 C   0  0  0  0  0  0  0  0  0  0  0  0
  -17.5517   -2.0091    3.6070 C   0  0  0  0  0  0  0  0  0  0  0  0
  -17.1936   -1.1955    4.6737 C   0  0  0  0  0  0  0  0  0  0  0  0
  -15.8941   -1.0326    5.0383 C   0  0  0  0  0  0  0  0  0  0  0  0
  -13.7123   -3.1538    2.6420 S   0  0  0  0  0  0  0  0  0  0  0  0
  -15.2485   -2.5133    3.2563 C   0  0  0  0  0  0  0  0  0  0  0  0
  -14.8577   -1.6925    4.3362 C   0  0  0  0  0  0  0  0  0  0  0  0
  -13.4225   -1.6446    4.5735 C   0  0  0  0  0  0  0  0  0  0  0  0
  -12.6024   -2.3531    3.7841 C   0  0  0  0  0  0  0  0  0  0  0  0
  -18.5906   -2.1234    3.3348 H   0  0  0  0  0  0  0  0  0  0  0  0
  -17.9652   -0.6801    5.2263 H   0  0  0  0  0  0  0  0  0  0  0  0
  -15.6500   -0.3921    5.8729 H   0  0  0  0  0  0  0  0  0  0  0  0
  -13.0223   -1.0446    5.3775 H   0  0  0  0  0  0  0  0  0  0  0  0
  -11.5256   -2.4226    3.8298 H   0  0  0  0  0  0  0  0  0  0  0  0
  1  2  1  0
  2  3  1  0
  3  4  1  0
  4  5  2  0
  5  6  1  0
  6  7  2  0
  7  8  1  0
  8  9  2  0
  9 10  1  0
 10 11  2  0
 11 12  1  0
 12 13  1  0
 13 14  2  0
 13 15  1  0
 15 16  1  0
 16 17  1  0
 17 18  2  0
 18 19  1  0
 19 20  2  0
 20 21  1  0
 21 22  1  0
 21 23  2  0
 12 24  2  0
  3  7  1  0
  8 24  1  0
 17 23  1  0
  1 25  1  0
  1 26  1  0
  1 27  1  0
  2 28  1  0
  2 29  1  0
  9 30  1  0
 10 31  1  0
 11 32  1  0
 15 33  1  0
 16 34  1  0
 16 35  1  0
 18 36  1  0
 19 37  1  0
 22 38  1  0
 22 39  1  0
 22 40  1  0
 23 41  1  0
 24 42  1  0
 43 44  2  0
 43 48  1  0
 44 45  1  0
 44 52  1  0
 45 46  2  0
 45 53  1  0
 46 49  1  0
 46 54  1  0
 47 48  1  0
 47 51  1  0
 48 49  2  0
 49 50  1  0
 50 51  2  0
 50 55  1  0
 51 56  1  0
 20 43  1  0
M  END
>  <CHROM.1>  (86) 
-61.21881374,-2.92414870,13.81509078,-168.53354661,-62.78859739,-14.60626922
-6.05811051,-2.36166533,-0.75171827,-0.07503907,1.05483303

>  <Name>  (86) 
design_10

>  <RI>  (86) 
37398200.000000

>  <Rbt.Current_Directory>  (86) 
/pylon5/mc5pksp/smaltr/gateway_workdirs/PROCESS_93251df5-8da2-4fa9-b874-71853b29d1ad

>  <Rbt.Executable>  (86) 
rbdock ($Id: //depot/dev/client3/rdock/2013.1/src/exe/rbdock.cxx#4 $)

>  <Rbt.Library>  (86) 
libRbt.so (2013.1, Build901 2013/11/27)

>  <Rbt.Parameter_File>  (86) 
/home/smaltr/software/rDock_2013.1_src//data/scripts/dock.prm

>  <Rbt.Receptor>  (86) 
/pylon5/mc5pksp/smaltr/gateway_workdirs/PROCESS_93251df5-8da2-4fa9-b874-71853b29d1ad/output/SnD-Target-Sep02/cavity/pocket_docking.prm

>  <SCORE>  (86) 
-18.959500

>  <SCORE.INTER>  (86) 
-19.705700

>  <SCORE.INTER.CONST>  (86) 
1

>  <SCORE.INTER.POLAR>  (86) 
-2.008240

>  <SCORE.INTER.REPUL>  (86) 
0

>  <SCORE.INTER.ROT>  (86) 
5

>  <SCORE.INTER.VDW>  (86) 
-23.277600

>  <SCORE.INTER.norm>  (86) 
-0.821069

>  <SCORE.INTRA>  (86) 
0.746124

>  <SCORE.INTRA.DIHEDRAL>  (86) 
-0.309032

>  <SCORE.INTRA.DIHEDRAL.0>  (86) 
5.396800

>  <SCORE.INTRA.POLAR>  (86) 
0

>  <SCORE.INTRA.POLAR.0>  (86) 
0

>  <SCORE.INTRA.REPUL>  (86) 
0

>  <SCORE.INTRA.REPUL.0>  (86) 
0

>  <SCORE.INTRA.VDW>  (86) 
0.900640

>  <SCORE.INTRA.VDW.0>  (86) 
-1.932270

>  <SCORE.INTRA.norm>  (86) 
0.031089

>  <SCORE.RESTR>  (86) 
0

>  <SCORE.RESTR.CAVITY>  (86) 
0

>  <SCORE.RESTR.norm>  (86) 
0

>  <SCORE.SYSTEM>  (86) 
0

>  <SCORE.SYSTEM.CONST>  (86) 
0

>  <SCORE.SYSTEM.DIHEDRAL>  (86) 
0

>  <SCORE.SYSTEM.norm>  (86) 
0

>  <SCORE.heavy>  (86) 
24

>  <SCORE.norm>  (86) 
-0.789980

>  <SMILES>  (86) 
CCn1nnnc1-c1cccc(C(=O)NCc2cccc(C)c2)c1

>  <Cycle>  (86) 
228

>  <MolWeight>  (86) 
321.384000

>  <LogP>  (86) 
2.598420

>  <QED>  (86) 
0.783778

>  <SAS>  (86) 
1.8697226741506743

$$$$
design_10
     RDKit          3D

 56 60  0  0  0  0  0  0  0  0999 V2000
   -9.2400   -6.6781   -5.6467 C   0  0  0  0  0  0  0  0  0  0  0  0
  -10.1048   -7.7630   -5.0642 C   0  0  0  0  0  0  0  0  0  0  0  0
  -10.6308   -7.3563   -3.7722 N   0  0  0  0  0  0  0  0  0  0  0  0
   -9.8244   -7.0657   -2.7098 N   0  0  0  0  0  0  0  0  0  0  0  0
  -10.6201   -6.7056   -1.7399 N   0  0  0  0  0  0  0  0  0  0  0  0
  -11.8607   -6.7621   -2.1537 N   0  0  0  0  0  0  0  0  0  0  0  0
  -11.8956   -7.1814   -3.4656 C   0  0  0  0  0  0  0  0  0  0  0  0
  -13.1555   -7.2885   -4.1713 C   0  0  0  0  0  0  0  0  0  0  0  0
  -13.2828   -7.5892   -5.4990 C   0  0  0  0  0  0  0  0  0  0  0  0
  -14.5493   -7.6094   -6.1094 C   0  0  0  0  0  0  0  0  0  0  0  0
  -15.6865   -7.3278   -5.3814 C   0  0  0  0  0  0  0  0  0  0  0  0
  -15.5955   -7.0228   -4.0448 C   0  0  0  0  0  0  0  0  0  0  0  0
  -16.7974   -6.7096   -3.2446 C   0  0  0  0  0  0  0  0  0  0  0  0
  -17.9344   -6.9735   -3.7168 O   0  0  0  0  0  0  0  0  0  0  0  0
  -16.7085   -6.1244   -1.9683 N   0  0  0  0  0  0  0  0  0  0  0  0
  -17.8981   -5.8284   -1.2131 C   0  0  0  0  0  0  0  0  0  0  0  0
  -17.5076   -4.9830   -0.0668 C   0  0  0  0  0  0  0  0  0  0  0  0
  -16.6531   -5.4354    0.9114 C   0  0  0  0  0  0  0  0  0  0  0  0
  -16.3324   -4.5918    1.9602 C   0  0  0  0  0  0  0  0  0  0  0  0
  -16.8369   -3.3125    2.0635 C   0  0  0  0  0  0  0  0  0  0  0  0
  -17.7024   -2.8709    1.0611 C   0  0  0  0  0  0  0  0  0  0  0  0
  -18.2639   -1.4914    1.1462 C   0  0  0  0  0  0  0  0  0  0  0  0
  -18.0268   -3.7102    0.0098 C   0  0  0  0  0  0  0  0  0  0  0  0
  -14.3524   -7.0094   -3.4743 C   0  0  0  0  0  0  0  0  0  0  0  0
   -8.2815   -7.1008   -5.9479 H   0  0  0  0  0  0  0  0  0  0  0  0
   -9.7350   -6.2456   -6.5162 H   0  0  0  0  0  0  0  0  0  0  0  0
   -9.0755   -5.9028   -4.8984 H   0  0  0  0  0  0  0  0  0  0  0  0
   -9.5016   -8.6612   -4.9319 H   0  0  0  0  0  0  0  0  0  0  0  0
  -10.9339   -7.9646   -5.7424 H   0  0  0  0  0  0  0  0  0  0  0  0
  -12.3948   -7.8152   -6.0894 H   0  0  0  0  0  0  0  0  0  0  0  0
  -14.6333   -7.8502   -7.1692 H   0  0  0  0  0  0  0  0  0  0  0  0
  -16.6614   -7.3473   -5.8685 H   0  0  0  0  0  0  0  0  0  0  0  0
  -15.8019   -5.9100   -1.5782 H   0  0  0  0  0  0  0  0  0  0  0  0
  -18.3659   -6.7491   -0.8644 H   0  0  0  0  0  0  0  0  0  0  0  0
  -18.6134   -5.2963   -1.8403 H   0  0  0  0  0  0  0  0  0  0  0  0
  -15.6551   -4.9522    2.7344 H   0  0  0  0  0  0  0  0  0  0  0  0
  -16.5687   -2.6674    2.9002 H   0  0  0  0  0  0  0  0  0  0  0  0
  -19.2299   -1.5234    1.6502 H   0  0  0  0  0  0  0  0  0  0  0  0
  -17.5816   -0.8549    1.7097 H   0  0  0  0  0  0  0  0  0  0  0  0
  -18.3920   -1.0880    0.1417 H   0  0  0  0  0  0  0  0  0  0  0  0
  -18.7033   -3.3584   -0.7691 H   0  0  0  0  0  0  0  0  0  0  0  0
  -14.2805   -6.7679   -2.4138 H   0  0  0  0  0  0  0  0  0  0  0  0
  -16.2377   -6.4365    0.8615 C   0  0  0  0  0  0  0  0  0  0  0  0
  -16.8713   -7.4846    1.4987 C   0  0  0  0  0  0  0  0  0  0  0  0
  -16.3296   -8.7608    1.4204 C   0  0  0  0  0  0  0  0  0  0  0  0
  -15.1853   -9.0058    0.7286 C   0  0  0  0  0  0  0  0  0  0  0  0
  -13.9694   -5.6537   -0.7837 S   0  0  0  0  0  0  0  0  0  0  0  0
  -15.0766   -6.6722    0.1567 C   0  0  0  0  0  0  0  0  0  0  0  0
  -14.5052   -7.9595    0.0614 C   0  0  0  0  0  0  0  0  0  0  0  0
  -13.2804   -8.0231   -0.7223 C   0  0  0  0  0  0  0  0  0  0  0  0
  -12.7972   -6.9024   -1.2776 C   0  0  0  0  0  0  0  0  0  0  0  0
  -17.7813   -7.3132    2.0545 H   0  0  0  0  0  0  0  0  0  0  0  0
  -16.8287   -9.5774    1.9208 H   0  0  0  0  0  0  0  0  0  0  0  0
  -14.7907  -10.0104    0.6879 H   0  0  0  0  0  0  0  0  0  0  0  0
  -12.7661   -8.9635   -0.8553 H   0  0  0  0  0  0  0  0  0  0  0  0
  -11.9093   -6.7845   -1.8810 H   0  0  0  0  0  0  0  0  0  0  0  0
  1  2  1  0
  2  3  1  0
  3  4  1  0
  4  5  2  0
  5  6  1  0
  6  7  2  0
  7  8  1  0
  8  9  2  0
  9 10  1  0
 10 11  2  0
 11 12  1  0
 12 13  1  0
 13 14  2  0
 13 15  1  0
 15 16  1  0
 16 17  1  0
 17 18  1  0
 18 19  2  0
 19 20  1  0
 20 21  2  0
 21 22  1  0
 21 23  1  0
 12 24  2  0
  3  7  1  0
  8 24  1  0
 17 23  2  0
  1 25  1  0
  1 26  1  0
  1 27  1  0
  2 28  1  0
  2 29  1  0
  9 30  1  0
 10 31  1  0
 11 32  1  0
 15 33  1  0
 16 34  1  0
 16 35  1  0
 19 36  1  0
 20 37  1  0
 22 38  1  0
 22 39  1  0
 22 40  1  0
 23 41  1  0
 24 42  1  0
 43 44  2  0
 43 48  1  0
 44 45  1  0
 44 52  1  0
 45 46  2  0
 45 53  1  0
 46 49  1  0
 46 54  1  0
 47 48  1  0
 47 51  1  0
 48 49  2  0
 49 50  1  0
 50 51  2  0
 50 55  1  0
 51 56  1  0
 18 43  1  0
M  END
>  <CHROM.1>  (87) 
-61.21881374,-2.92414870,13.81509078,-168.53354661,-62.78859739,-14.60626922
-6.05811051,-2.36166533,-0.75171827,-0.07503907,1.05483303

>  <Name>  (87) 
design_10

>  <RI>  (87) 
37398200.000000

>  <Rbt.Current_Directory>  (87) 
/pylon5/mc5pksp/smaltr/gateway_workdirs/PROCESS_93251df5-8da2-4fa9-b874-71853b29d1ad

>  <Rbt.Executable>  (87) 
rbdock ($Id: //depot/dev/client3/rdock/2013.1/src/exe/rbdock.cxx#4 $)

>  <Rbt.Library>  (87) 
libRbt.so (2013.1, Build901 2013/11/27)

>  <Rbt.Parameter_File>  (87) 
/home/smaltr/software/rDock_2013.1_src//data/scripts/dock.prm

>  <Rbt.Receptor>  (87) 
/pylon5/mc5pksp/smaltr/gateway_workdirs/PROCESS_93251df5-8da2-4fa9-b874-71853b29d1ad/output/SnD-Target-Sep02/cavity/pocket_docking.prm

>  <SCORE>  (87) 
-18.959500

>  <SCORE.INTER>  (87) 
-19.705700

>  <SCORE.INTER.CONST>  (87) 
1

>  <SCORE.INTER.POLAR>  (87) 
-2.008240

>  <SCORE.INTER.REPUL>  (87) 
0

>  <SCORE.INTER.ROT>  (87) 
5

>  <SCORE.INTER.VDW>  (87) 
-23.277600

>  <SCORE.INTER.norm>  (87) 
-0.821069

>  <SCORE.INTRA>  (87) 
0.746124

>  <SCORE.INTRA.DIHEDRAL>  (87) 
-0.309032

>  <SCORE.INTRA.DIHEDRAL.0>  (87) 
5.396800

>  <SCORE.INTRA.POLAR>  (87) 
0

>  <SCORE.INTRA.POLAR.0>  (87) 
0

>  <SCORE.INTRA.REPUL>  (87) 
0

>  <SCORE.INTRA.REPUL.0>  (87) 
0

>  <SCORE.INTRA.VDW>  (87) 
0.900640

>  <SCORE.INTRA.VDW.0>  (87) 
-1.932270

>  <SCORE.INTRA.norm>  (87) 
0.031089

>  <SCORE.RESTR>  (87) 
0

>  <SCORE.RESTR.CAVITY>  (87) 
0

>  <SCORE.RESTR.norm>  (87) 
0

>  <SCORE.SYSTEM>  (87) 
0

>  <SCORE.SYSTEM.CONST>  (87) 
0

>  <SCORE.SYSTEM.DIHEDRAL>  (87) 
0

>  <SCORE.SYSTEM.norm>  (87) 
0

>  <SCORE.heavy>  (87) 
24

>  <SCORE.norm>  (87) 
-0.789980

>  <SMILES>  (87) 
CCn1nnnc1-c1cccc(C(=O)NCc2cccc(C)c2)c1

>  <Cycle>  (87) 
228

>  <MolWeight>  (87) 
321.384000

>  <LogP>  (87) 
2.598420

>  <QED>  (87) 
0.783778

>  <SAS>  (87) 
1.8697226741506743

$$$$
design_10
     RDKit          3D

 56 60  0  0  0  0  0  0  0  0999 V2000
   -9.2400   -6.6781   -5.6467 C   0  0  0  0  0  0  0  0  0  0  0  0
  -10.1048   -7.7630   -5.0642 C   0  0  0  0  0  0  0  0  0  0  0  0
  -10.6308   -7.3563   -3.7722 N   0  0  0  0  0  0  0  0  0  0  0  0
   -9.8244   -7.0657   -2.7098 N   0  0  0  0  0  0  0  0  0  0  0  0
  -10.6201   -6.7056   -1.7399 N   0  0  0  0  0  0  0  0  0  0  0  0
  -11.8607   -6.7621   -2.1537 N   0  0  0  0  0  0  0  0  0  0  0  0
  -11.8956   -7.1814   -3.4656 C   0  0  0  0  0  0  0  0  0  0  0  0
  -13.1555   -7.2885   -4.1713 C   0  0  0  0  0  0  0  0  0  0  0  0
  -13.2828   -7.5892   -5.4990 C   0  0  0  0  0  0  0  0  0  0  0  0
  -14.5493   -7.6094   -6.1094 C   0  0  0  0  0  0  0  0  0  0  0  0
  -15.6865   -7.3278   -5.3814 C   0  0  0  0  0  0  0  0  0  0  0  0
  -15.5955   -7.0228   -4.0448 C   0  0  0  0  0  0  0  0  0  0  0  0
  -16.7974   -6.7096   -3.2446 C   0  0  0  0  0  0  0  0  0  0  0  0
  -17.9344   -6.9735   -3.7168 O   0  0  0  0  0  0  0  0  0  0  0  0
  -16.7085   -6.1244   -1.9683 N   0  0  0  0  0  0  0  0  0  0  0  0
  -17.8981   -5.8284   -1.2131 C   0  0  0  0  0  0  0  0  0  0  0  0
  -17.5076   -4.9830   -0.0668 C   0  0  0  0  0  0  0  0  0  0  0  0
  -16.6531   -5.4354    0.9114 C   0  0  0  0  0  0  0  0  0  0  0  0
  -16.3324   -4.5918    1.9602 C   0  0  0  0  0  0  0  0  0  0  0  0
  -16.8369   -3.3125    2.0635 C   0  0  0  0  0  0  0  0  0  0  0  0
  -17.7024   -2.8709    1.0611 C   0  0  0  0  0  0  0  0  0  0  0  0
  -18.2639   -1.4914    1.1462 C   0  0  0  0  0  0  0  0  0  0  0  0
  -18.0268   -3.7102    0.0098 C   0  0  0  0  0  0  0  0  0  0  0  0
  -14.3524   -7.0094   -3.4743 C   0  0  0  0  0  0  0  0  0  0  0  0
   -8.2815   -7.1008   -5.9479 H   0  0  0  0  0  0  0  0  0  0  0  0
   -9.7350   -6.2456   -6.5162 H   0  0  0  0  0  0  0  0  0  0  0  0
   -9.0755   -5.9028   -4.8984 H   0  0  0  0  0  0  0  0  0  0  0  0
   -9.5016   -8.6612   -4.9319 H   0  0  0  0  0  0  0  0  0  0  0  0
  -10.9339   -7.9646   -5.7424 H   0  0  0  0  0  0  0  0  0  0  0  0
  -12.3948   -7.8152   -6.0894 H   0  0  0  0  0  0  0  0  0  0  0  0
  -14.6333   -7.8502   -7.1692 H   0  0  0  0  0  0  0  0  0  0  0  0
  -16.6614   -7.3473   -5.8685 H   0  0  0  0  0  0  0  0  0  0  0  0
  -15.8019   -5.9100   -1.5782 H   0  0  0  0  0  0  0  0  0  0  0  0
  -18.3659   -6.7491   -0.8644 H   0  0  0  0  0  0  0  0  0  0  0  0
  -18.6134   -5.2963   -1.8403 H   0  0  0  0  0  0  0  0  0  0  0  0
  -16.2358   -6.4411    0.8613 H   0  0  0  0  0  0  0  0  0  0  0  0
  -15.6551   -4.9522    2.7344 H   0  0  0  0  0  0  0  0  0  0  0  0
  -16.5687   -2.6674    2.9002 H   0  0  0  0  0  0  0  0  0  0  0  0
  -19.2299   -1.5234    1.6502 H   0  0  0  0  0  0  0  0  0  0  0  0
  -17.5816   -0.8549    1.7097 H   0  0  0  0  0  0  0  0  0  0  0  0
  -18.3920   -1.0880    0.1417 H   0  0  0  0  0  0  0  0  0  0  0  0
  -14.2805   -6.7679   -2.4138 H   0  0  0  0  0  0  0  0  0  0  0  0
  -18.7002   -3.3600   -0.7655 C   0  0  0  0  0  0  0  0  0  0  0  0
  -18.3783   -3.5342   -2.0967 C   0  0  0  0  0  0  0  0  0  0  0  0
  -19.2537   -3.0852   -3.0766 C   0  0  0  0  0  0  0  0  0  0  0  0
  -20.4259   -2.4755   -2.7571 C   0  0  0  0  0  0  0  0  0  0  0  0
  -20.6745   -2.3273    1.1053 S   0  0  0  0  0  0  0  0  0  0  0  0
  -19.8861   -2.7431   -0.4286 C   0  0  0  0  0  0  0  0  0  0  0  0
  -20.7933   -2.2777   -1.4049 C   0  0  0  0  0  0  0  0  0  0  0  0
  -21.9935   -1.6527   -0.8689 C   0  0  0  0  0  0  0  0  0  0  0  0
  -22.1505   -1.5644    0.4597 C   0  0  0  0  0  0  0  0  0  0  0  0
  -17.4521   -4.0156   -2.3739 H   0  0  0  0  0  0  0  0  0  0  0  0
  -18.9972   -3.2235   -4.1166 H   0  0  0  0  0  0  0  0  0  0  0  0
  -21.0841   -2.1379   -3.5441 H   0  0  0  0  0  0  0  0  0  0  0  0
  -22.7500   -1.2642   -1.5347 H   0  0  0  0  0  0  0  0  0  0  0  0
  -22.9754   -1.1341    1.0082 H   0  0  0  0  0  0  0  0  0  0  0  0
  1  2  1  0
  2  3  1  0
  3  4  1  0
  4  5  2  0
  5  6  1  0
  6  7  2  0
  7  8  1  0
  8  9  2  0
  9 10  1  0
 10 11  2  0
 11 12  1  0
 12 13  1  0
 13 14  2  0
 13 15  1  0
 15 16  1  0
 16 17  1  0
 17 18  2  0
 18 19  1  0
 19 20  2  0
 20 21  1  0
 21 22  1  0
 21 23  2  0
 12 24  2  0
  3  7  1  0
  8 24  1  0
 17 23  1  0
  1 25  1  0
  1 26  1  0
  1 27  1  0
  2 28  1  0
  2 29  1  0
  9 30  1  0
 10 31  1  0
 11 32  1  0
 15 33  1  0
 16 34  1  0
 16 35  1  0
 18 36  1  0
 19 37  1  0
 20 38  1  0
 22 39  1  0
 22 40  1  0
 22 41  1  0
 24 42  1  0
 43 44  2  0
 43 48  1  0
 44 45  1  0
 44 52  1  0
 45 46  2  0
 45 53  1  0
 46 49  1  0
 46 54  1  0
 47 48  1  0
 47 51  1  0
 48 49  2  0
 49 50  1  0
 50 51  2  0
 50 55  1  0
 51 56  1  0
 23 43  1  0
M  END
>  <CHROM.1>  (88) 
-61.21881374,-2.92414870,13.81509078,-168.53354661,-62.78859739,-14.60626922
-6.05811051,-2.36166533,-0.75171827,-0.07503907,1.05483303

>  <Name>  (88) 
design_10

>  <RI>  (88) 
37398200.000000

>  <Rbt.Current_Directory>  (88) 
/pylon5/mc5pksp/smaltr/gateway_workdirs/PROCESS_93251df5-8da2-4fa9-b874-71853b29d1ad

>  <Rbt.Executable>  (88) 
rbdock ($Id: //depot/dev/client3/rdock/2013.1/src/exe/rbdock.cxx#4 $)

>  <Rbt.Library>  (88) 
libRbt.so (2013.1, Build901 2013/11/27)

>  <Rbt.Parameter_File>  (88) 
/home/smaltr/software/rDock_2013.1_src//data/scripts/dock.prm

>  <Rbt.Receptor>  (88) 
/pylon5/mc5pksp/smaltr/gateway_workdirs/PROCESS_93251df5-8da2-4fa9-b874-71853b29d1ad/output/SnD-Target-Sep02/cavity/pocket_docking.prm

>  <SCORE>  (88) 
-18.959500

>  <SCORE.INTER>  (88) 
-19.705700

>  <SCORE.INTER.CONST>  (88) 
1

>  <SCORE.INTER.POLAR>  (88) 
-2.008240

>  <SCORE.INTER.REPUL>  (88) 
0

>  <SCORE.INTER.ROT>  (88) 
5

>  <SCORE.INTER.VDW>  (88) 
-23.277600

>  <SCORE.INTER.norm>  (88) 
-0.821069

>  <SCORE.INTRA>  (88) 
0.746124

>  <SCORE.INTRA.DIHEDRAL>  (88) 
-0.309032

>  <SCORE.INTRA.DIHEDRAL.0>  (88) 
5.396800

>  <SCORE.INTRA.POLAR>  (88) 
0

>  <SCORE.INTRA.POLAR.0>  (88) 
0

>  <SCORE.INTRA.REPUL>  (88) 
0

>  <SCORE.INTRA.REPUL.0>  (88) 
0

>  <SCORE.INTRA.VDW>  (88) 
0.900640

>  <SCORE.INTRA.VDW.0>  (88) 
-1.932270

>  <SCORE.INTRA.norm>  (88) 
0.031089

>  <SCORE.RESTR>  (88) 
0

>  <SCORE.RESTR.CAVITY>  (88) 
0

>  <SCORE.RESTR.norm>  (88) 
0

>  <SCORE.SYSTEM>  (88) 
0

>  <SCORE.SYSTEM.CONST>  (88) 
0

>  <SCORE.SYSTEM.DIHEDRAL>  (88) 
0

>  <SCORE.SYSTEM.norm>  (88) 
0

>  <SCORE.heavy>  (88) 
24

>  <SCORE.norm>  (88) 
-0.789980

>  <SMILES>  (88) 
CCn1nnnc1-c1cccc(C(=O)NCc2cccc(C)c2)c1

>  <Cycle>  (88) 
228

>  <MolWeight>  (88) 
321.384000

>  <LogP>  (88) 
2.598420

>  <QED>  (88) 
0.783778

>  <SAS>  (88) 
1.8697226741506743

$$$$
design_10
     RDKit          3D

 53 56  0  0  0  0  0  0  0  0999 V2000
   -9.2400   -6.6781   -5.6467 C   0  0  0  0  0  0  0  0  0  0  0  0
  -10.1048   -7.7630   -5.0642 C   0  0  0  0  0  0  0  0  0  0  0  0
  -10.6308   -7.3563   -3.7722 N   0  0  0  0  0  0  0  0  0  0  0  0
   -9.8244   -7.0657   -2.7098 N   0  0  0  0  0  0  0  0  0  0  0  0
  -10.6201   -6.7056   -1.7399 N   0  0  0  0  0  0  0  0  0  0  0  0
  -11.8607   -6.7621   -2.1537 N   0  0  0  0  0  0  0  0  0  0  0  0
  -11.8956   -7.1814   -3.4656 C   0  0  0  0  0  0  0  0  0  0  0  0
  -13.1555   -7.2885   -4.1713 C   0  0  0  0  0  0  0  0  0  0  0  0
  -13.2828   -7.5892   -5.4990 C   0  0  0  0  0  0  0  0  0  0  0  0
  -14.5493   -7.6094   -6.1094 C   0  0  0  0  0  0  0  0  0  0  0  0
  -15.6865   -7.3278   -5.3814 C   0  0  0  0  0  0  0  0  0  0  0  0
  -15.5955   -7.0228   -4.0448 C   0  0  0  0  0  0  0  0  0  0  0  0
  -16.7974   -6.7096   -3.2446 C   0  0  0  0  0  0  0  0  0  0  0  0
  -17.9344   -6.9735   -3.7168 O   0  0  0  0  0  0  0  0  0  0  0  0
  -16.7085   -6.1244   -1.9683 N   0  0  0  0  0  0  0  0  0  0  0  0
  -17.8981   -5.8284   -1.2131 C   0  0  0  0  0  0  0  0  0  0  0  0
  -17.5076   -4.9830   -0.0668 C   0  0  0  0  0  0  0  0  0  0  0  0
  -16.6531   -5.4354    0.9114 C   0  0  0  0  0  0  0  0  0  0  0  0
  -16.3324   -4.5918    1.9602 C   0  0  0  0  0  0  0  0  0  0  0  0
  -16.8369   -3.3125    2.0635 C   0  0  0  0  0  0  0  0  0  0  0  0
  -17.7024   -2.8709    1.0611 C   0  0  0  0  0  0  0  0  0  0  0  0
  -18.2639   -1.4914    1.1462 C   0  0  0  0  0  0  0  0  0  0  0  0
  -18.0268   -3.7102    0.0098 C   0  0  0  0  0  0  0  0  0  0  0  0
  -14.3524   -7.0094   -3.4743 C   0  0  0  0  0  0  0  0  0  0  0  0
   -8.2815   -7.1008   -5.9479 H   0  0  0  0  0  0  0  0  0  0  0  0
   -9.7350   -6.2456   -6.5162 H   0  0  0  0  0  0  0  0  0  0  0  0
   -9.0755   -5.9028   -4.8984 H   0  0  0  0  0  0  0  0  0  0  0  0
   -9.5016   -8.6612   -4.9319 H   0  0  0  0  0  0  0  0  0  0  0  0
  -10.9339   -7.9646   -5.7424 H   0  0  0  0  0  0  0  0  0  0  0  0
  -12.3948   -7.8152   -6.0894 H   0  0  0  0  0  0  0  0  0  0  0  0
  -16.6614   -7.3473   -5.8685 H   0  0  0  0  0  0  0  0  0  0  0  0
  -15.8019   -5.9100   -1.5782 H   0  0  0  0  0  0  0  0  0  0  0  0
  -18.3659   -6.7491   -0.8644 H   0  0  0  0  0  0  0  0  0  0  0  0
  -18.6134   -5.2963   -1.8403 H   0  0  0  0  0  0  0  0  0  0  0  0
  -16.2358   -6.4411    0.8613 H   0  0  0  0  0  0  0  0  0  0  0  0
  -15.6551   -4.9522    2.7344 H   0  0  0  0  0  0  0  0  0  0  0  0
  -16.5687   -2.6674    2.9002 H   0  0  0  0  0  0  0  0  0  0  0  0
  -19.2299   -1.5234    1.6502 H   0  0  0  0  0  0  0  0  0  0  0  0
  -17.5816   -0.8549    1.7097 H   0  0  0  0  0  0  0  0  0  0  0  0
  -18.3920   -1.0880    0.1417 H   0  0  0  0  0  0  0  0  0  0  0  0
  -18.7033   -3.3584   -0.7691 H   0  0  0  0  0  0  0  0  0  0  0  0
  -14.2805   -6.7679   -2.4138 H   0  0  0  0  0  0  0  0  0  0  0  0
  -13.5994   -7.2289   -8.3596 S   0  0  0  0  0  0  0  0  0  0  0  0
  -14.4000   -8.0653   -9.5994 C   0  0  0  0  0  0  0  0  0  0  0  0
  -15.4705   -8.8300   -9.1115 C   0  0  0  0  0  0  0  0  0  0  0  0
  -15.6041   -8.7059   -7.7103 C   0  0  0  0  0  0  0  0  0  0  0  0
  -14.6329   -7.8491   -7.1642 C   0  0  0  0  0  0  0  0  0  0  0  0
  -13.9580   -7.9516  -11.0382 C   0  0  0  0  0  0  0  0  0  0  0  0
  -16.1087   -9.4362   -9.7367 H   0  0  0  0  0  0  0  0  0  0  0  0
  -16.3623   -9.2087   -7.1286 H   0  0  0  0  0  0  0  0  0  0  0  0
  -14.4778   -7.1275  -11.5258 H   0  0  0  0  0  0  0  0  0  0  0  0
  -12.8854   -7.7648  -11.0884 H   0  0  0  0  0  0  0  0  0  0  0  0
  -14.1755   -8.8727  -11.5788 H   0  0  0  0  0  0  0  0  0  0  0  0
  1  2  1  0
  2  3  1  0
  3  4  1  0
  4  5  2  0
  5  6  1  0
  6  7  2  0
  7  8  1  0
  8  9  2  0
  9 10  1  0
 10 11  2  0
 11 12  1  0
 12 13  1  0
 13 14  2  0
 13 15  1  0
 15 16  1  0
 16 17  1  0
 17 18  2  0
 18 19  1  0
 19 20  2  0
 20 21  1  0
 21 22  1  0
 21 23  2  0
 12 24  2  0
  3  7  1  0
  8 24  1  0
 17 23  1  0
  1 25  1  0
  1 26  1  0
  1 27  1  0
  2 28  1  0
  2 29  1  0
  9 30  1  0
 11 31  1  0
 15 32  1  0
 16 33  1  0
 16 34  1  0
 18 35  1  0
 19 36  1  0
 20 37  1  0
 22 38  1  0
 22 39  1  0
 22 40  1  0
 23 41  1  0
 24 42  1  0
 43 44  1  0
 43 47  1  0
 44 45  2  0
 44 48  1  0
 45 46  1  0
 45 49  1  0
 46 47  2  0
 46 50  1  0
 48 51  1  0
 48 52  1  0
 48 53  1  0
 10 47  1  0
M  END
>  <CHROM.1>  (89) 
-61.21881374,-2.92414870,13.81509078,-168.53354661,-62.78859739,-14.60626922
-6.05811051,-2.36166533,-0.75171827,-0.07503907,1.05483303

>  <Name>  (89) 
design_10

>  <RI>  (89) 
37398200.000000

>  <Rbt.Current_Directory>  (89) 
/pylon5/mc5pksp/smaltr/gateway_workdirs/PROCESS_93251df5-8da2-4fa9-b874-71853b29d1ad

>  <Rbt.Executable>  (89) 
rbdock ($Id: //depot/dev/client3/rdock/2013.1/src/exe/rbdock.cxx#4 $)

>  <Rbt.Library>  (89) 
libRbt.so (2013.1, Build901 2013/11/27)

>  <Rbt.Parameter_File>  (89) 
/home/smaltr/software/rDock_2013.1_src//data/scripts/dock.prm

>  <Rbt.Receptor>  (89) 
/pylon5/mc5pksp/smaltr/gateway_workdirs/PROCESS_93251df5-8da2-4fa9-b874-71853b29d1ad/output/SnD-Target-Sep02/cavity/pocket_docking.prm

>  <SCORE>  (89) 
-18.959500

>  <SCORE.INTER>  (89) 
-19.705700

>  <SCORE.INTER.CONST>  (89) 
1

>  <SCORE.INTER.POLAR>  (89) 
-2.008240

>  <SCORE.INTER.REPUL>  (89) 
0

>  <SCORE.INTER.ROT>  (89) 
5

>  <SCORE.INTER.VDW>  (89) 
-23.277600

>  <SCORE.INTER.norm>  (89) 
-0.821069

>  <SCORE.INTRA>  (89) 
0.746124

>  <SCORE.INTRA.DIHEDRAL>  (89) 
-0.309032

>  <SCORE.INTRA.DIHEDRAL.0>  (89) 
5.396800

>  <SCORE.INTRA.POLAR>  (89) 
0

>  <SCORE.INTRA.POLAR.0>  (89) 
0

>  <SCORE.INTRA.REPUL>  (89) 
0

>  <SCORE.INTRA.REPUL.0>  (89) 
0

>  <SCORE.INTRA.VDW>  (89) 
0.900640

>  <SCORE.INTRA.VDW.0>  (89) 
-1.932270

>  <SCORE.INTRA.norm>  (89) 
0.031089

>  <SCORE.RESTR>  (89) 
0

>  <SCORE.RESTR.CAVITY>  (89) 
0

>  <SCORE.RESTR.norm>  (89) 
0

>  <SCORE.SYSTEM>  (89) 
0

>  <SCORE.SYSTEM.CONST>  (89) 
0

>  <SCORE.SYSTEM.DIHEDRAL>  (89) 
0

>  <SCORE.SYSTEM.norm>  (89) 
0

>  <SCORE.heavy>  (89) 
24

>  <SCORE.norm>  (89) 
-0.789980

>  <SMILES>  (89) 
CCn1nnnc1-c1cccc(C(=O)NCc2cccc(C)c2)c1

>  <Cycle>  (89) 
228

>  <MolWeight>  (89) 
321.384000

>  <LogP>  (89) 
2.598420

>  <QED>  (89) 
0.783778

>  <SAS>  (89) 
1

$$$$
design_10
     RDKit          3D

 53 56  0  0  0  0  0  0  0  0999 V2000
   -9.2400   -6.6781   -5.6467 C   0  0  0  0  0  0  0  0  0  0  0  0
  -10.1048   -7.7630   -5.0642 C   0  0  0  0  0  0  0  0  0  0  0  0
  -10.6308   -7.3563   -3.7722 N   0  0  0  0  0  0  0  0  0  0  0  0
   -9.8244   -7.0657   -2.7098 N   0  0  0  0  0  0  0  0  0  0  0  0
  -10.6201   -6.7056   -1.7399 N   0  0  0  0  0  0  0  0  0  0  0  0
  -11.8607   -6.7621   -2.1537 N   0  0  0  0  0  0  0  0  0  0  0  0
  -11.8956   -7.1814   -3.4656 C   0  0  0  0  0  0  0  0  0  0  0  0
  -13.1555   -7.2885   -4.1713 C   0  0  0  0  0  0  0  0  0  0  0  0
  -13.2828   -7.5892   -5.4990 C   0  0  0  0  0  0  0  0  0  0  0  0
  -14.5493   -7.6094   -6.1094 C   0  0  0  0  0  0  0  0  0  0  0  0
  -15.6865   -7.3278   -5.3814 C   0  0  0  0  0  0  0  0  0  0  0  0
  -15.5955   -7.0228   -4.0448 C   0  0  0  0  0  0  0  0  0  0  0  0
  -16.7974   -6.7096   -3.2446 C   0  0  0  0  0  0  0  0  0  0  0  0
  -17.9344   -6.9735   -3.7168 O   0  0  0  0  0  0  0  0  0  0  0  0
  -16.7085   -6.1244   -1.9683 N   0  0  0  0  0  0  0  0  0  0  0  0
  -17.8981   -5.8284   -1.2131 C   0  0  0  0  0  0  0  0  0  0  0  0
  -17.5076   -4.9830   -0.0668 C   0  0  0  0  0  0  0  0  0  0  0  0
  -16.6531   -5.4354    0.9114 C   0  0  0  0  0  0  0  0  0  0  0  0
  -16.3324   -4.5918    1.9602 C   0  0  0  0  0  0  0  0  0  0  0  0
  -16.8369   -3.3125    2.0635 C   0  0  0  0  0  0  0  0  0  0  0  0
  -17.7024   -2.8709    1.0611 C   0  0  0  0  0  0  0  0  0  0  0  0
  -18.2639   -1.4914    1.1462 C   0  0  0  0  0  0  0  0  0  0  0  0
  -18.0268   -3.7102    0.0098 C   0  0  0  0  0  0  0  0  0  0  0  0
  -14.3524   -7.0094   -3.4743 C   0  0  0  0  0  0  0  0  0  0  0  0
   -8.2815   -7.1008   -5.9479 H   0  0  0  0  0  0  0  0  0  0  0  0
   -9.7350   -6.2456   -6.5162 H   0  0  0  0  0  0  0  0  0  0  0  0
   -9.0755   -5.9028   -4.8984 H   0  0  0  0  0  0  0  0  0  0  0  0
   -9.5016   -8.6612   -4.9319 H   0  0  0  0  0  0  0  0  0  0  0  0
  -10.9339   -7.9646   -5.7424 H   0  0  0  0  0  0  0  0  0  0  0  0
  -12.3948   -7.8152   -6.0894 H   0  0  0  0  0  0  0  0  0  0  0  0
  -14.6333   -7.8502   -7.1692 H   0  0  0  0  0  0  0  0  0  0  0  0
  -16.6614   -7.3473   -5.8685 H   0  0  0  0  0  0  0  0  0  0  0  0
  -15.8019   -5.9100   -1.5782 H   0  0  0  0  0  0  0  0  0  0  0  0
  -18.3659   -6.7491   -0.8644 H   0  0  0  0  0  0  0  0  0  0  0  0
  -18.6134   -5.2963   -1.8403 H   0  0  0  0  0  0  0  0  0  0  0  0
  -16.2358   -6.4411    0.8613 H   0  0  0  0  0  0  0  0  0  0  0  0
  -16.5687   -2.6674    2.9002 H   0  0  0  0  0  0  0  0  0  0  0  0
  -19.2299   -1.5234    1.6502 H   0  0  0  0  0  0  0  0  0  0  0  0
  -17.5816   -0.8549    1.7097 H   0  0  0  0  0  0  0  0  0  0  0  0
  -18.3920   -1.0880    0.1417 H   0  0  0  0  0  0  0  0  0  0  0  0
  -18.7033   -3.3584   -0.7691 H   0  0  0  0  0  0  0  0  0  0  0  0
  -14.2805   -6.7679   -2.4138 H   0  0  0  0  0  0  0  0  0  0  0  0
  -16.1751   -5.6562    4.1856 S   0  0  0  0  0  0  0  0  0  0  0  0
  -14.5856   -5.8914    4.7296 C   0  0  0  0  0  0  0  0  0  0  0  0
  -13.6390   -5.4307    3.8021 C   0  0  0  0  0  0  0  0  0  0  0  0
  -14.2562   -4.8898    2.6518 C   0  0  0  0  0  0  0  0  0  0  0  0
  -15.6582   -4.9505    2.7308 C   0  0  0  0  0  0  0  0  0  0  0  0
  -14.2980   -6.5274    6.0680 C   0  0  0  0  0  0  0  0  0  0  0  0
  -12.5718   -5.4865    3.9560 H   0  0  0  0  0  0  0  0  0  0  0  0
  -13.7154   -4.4783    1.8127 H   0  0  0  0  0  0  0  0  0  0  0  0
  -14.2412   -5.7626    6.8418 H   0  0  0  0  0  0  0  0  0  0  0  0
  -15.0904   -7.2285    6.3292 H   0  0  0  0  0  0  0  0  0  0  0  0
  -13.3520   -7.0681    6.0387 H   0  0  0  0  0  0  0  0  0  0  0  0
  1  2  1  0
  2  3  1  0
  3  4  1  0
  4  5  2  0
  5  6  1  0
  6  7  2  0
  7  8  1  0
  8  9  2  0
  9 10  1  0
 10 11  2  0
 11 12  1  0
 12 13  1  0
 13 14  2  0
 13 15  1  0
 15 16  1  0
 16 17  1  0
 17 18  2  0
 18 19  1  0
 19 20  2  0
 20 21  1  0
 21 22  1  0
 21 23  2  0
 12 24  2  0
  3  7  1  0
  8 24  1  0
 17 23  1  0
  1 25  1  0
  1 26  1  0
  1 27  1  0
  2 28  1  0
  2 29  1  0
  9 30  1  0
 10 31  1  0
 11 32  1  0
 15 33  1  0
 16 34  1  0
 16 35  1  0
 18 36  1  0
 20 37  1  0
 22 38  1  0
 22 39  1  0
 22 40  1  0
 23 41  1  0
 24 42  1  0
 43 44  1  0
 43 47  1  0
 44 45  2  0
 44 48  1  0
 45 46  1  0
 45 49  1  0
 46 47  2  0
 46 50  1  0
 48 51  1  0
 48 52  1  0
 48 53  1  0
 19 47  1  0
M  END
>  <CHROM.1>  (90) 
-61.21881374,-2.92414870,13.81509078,-168.53354661,-62.78859739,-14.60626922
-6.05811051,-2.36166533,-0.75171827,-0.07503907,1.05483303

>  <Name>  (90) 
design_10

>  <RI>  (90) 
37398200.000000

>  <Rbt.Current_Directory>  (90) 
/pylon5/mc5pksp/smaltr/gateway_workdirs/PROCESS_93251df5-8da2-4fa9-b874-71853b29d1ad

>  <Rbt.Executable>  (90) 
rbdock ($Id: //depot/dev/client3/rdock/2013.1/src/exe/rbdock.cxx#4 $)

>  <Rbt.Library>  (90) 
libRbt.so (2013.1, Build901 2013/11/27)

>  <Rbt.Parameter_File>  (90) 
/home/smaltr/software/rDock_2013.1_src//data/scripts/dock.prm

>  <Rbt.Receptor>  (90) 
/pylon5/mc5pksp/smaltr/gateway_workdirs/PROCESS_93251df5-8da2-4fa9-b874-71853b29d1ad/output/SnD-Target-Sep02/cavity/pocket_docking.prm

>  <SCORE>  (90) 
-18.959500

>  <SCORE.INTER>  (90) 
-19.705700

>  <SCORE.INTER.CONST>  (90) 
1

>  <SCORE.INTER.POLAR>  (90) 
-2.008240

>  <SCORE.INTER.REPUL>  (90) 
0

>  <SCORE.INTER.ROT>  (90) 
5

>  <SCORE.INTER.VDW>  (90) 
-23.277600

>  <SCORE.INTER.norm>  (90) 
-0.821069

>  <SCORE.INTRA>  (90) 
0.746124

>  <SCORE.INTRA.DIHEDRAL>  (90) 
-0.309032

>  <SCORE.INTRA.DIHEDRAL.0>  (90) 
5.396800

>  <SCORE.INTRA.POLAR>  (90) 
0

>  <SCORE.INTRA.POLAR.0>  (90) 
0

>  <SCORE.INTRA.REPUL>  (90) 
0

>  <SCORE.INTRA.REPUL.0>  (90) 
0

>  <SCORE.INTRA.VDW>  (90) 
0.900640

>  <SCORE.INTRA.VDW.0>  (90) 
-1.932270

>  <SCORE.INTRA.norm>  (90) 
0.031089

>  <SCORE.RESTR>  (90) 
0

>  <SCORE.RESTR.CAVITY>  (90) 
0

>  <SCORE.RESTR.norm>  (90) 
0

>  <SCORE.SYSTEM>  (90) 
0

>  <SCORE.SYSTEM.CONST>  (90) 
0

>  <SCORE.SYSTEM.DIHEDRAL>  (90) 
0

>  <SCORE.SYSTEM.norm>  (90) 
0

>  <SCORE.heavy>  (90) 
24

>  <SCORE.norm>  (90) 
-0.789980

>  <SMILES>  (90) 
CCn1nnnc1-c1cccc(C(=O)NCc2cccc(C)c2)c1

>  <Cycle>  (90) 
228

>  <MolWeight>  (90) 
321.384000

>  <LogP>  (90) 
2.598420

>  <QED>  (90) 
0.783778

>  <SAS>  (90) 
1

$$$$
design_10
     RDKit          3D

 53 56  0  0  0  0  0  0  0  0999 V2000
   -9.2400   -6.6781   -5.6467 C   0  0  0  0  0  0  0  0  0  0  0  0
  -10.1048   -7.7630   -5.0642 C   0  0  0  0  0  0  0  0  0  0  0  0
  -10.6308   -7.3563   -3.7722 N   0  0  0  0  0  0  0  0  0  0  0  0
   -9.8244   -7.0657   -2.7098 N   0  0  0  0  0  0  0  0  0  0  0  0
  -10.6201   -6.7056   -1.7399 N   0  0  0  0  0  0  0  0  0  0  0  0
  -11.8607   -6.7621   -2.1537 N   0  0  0  0  0  0  0  0  0  0  0  0
  -11.8956   -7.1814   -3.4656 C   0  0  0  0  0  0  0  0  0  0  0  0
  -13.1555   -7.2885   -4.1713 C   0  0  0  0  0  0  0  0  0  0  0  0
  -13.2828   -7.5892   -5.4990 C   0  0  0  0  0  0  0  0  0  0  0  0
  -14.5493   -7.6094   -6.1094 C   0  0  0  0  0  0  0  0  0  0  0  0
  -15.6865   -7.3278   -5.3814 C   0  0  0  0  0  0  0  0  0  0  0  0
  -15.5955   -7.0228   -4.0448 C   0  0  0  0  0  0  0  0  0  0  0  0
  -16.7974   -6.7096   -3.2446 C   0  0  0  0  0  0  0  0  0  0  0  0
  -17.9344   -6.9735   -3.7168 O   0  0  0  0  0  0  0  0  0  0  0  0
  -16.7085   -6.1244   -1.9683 N   0  0  0  0  0  0  0  0  0  0  0  0
  -17.8981   -5.8284   -1.2131 C   0  0  0  0  0  0  0  0  0  0  0  0
  -17.5076   -4.9830   -0.0668 C   0  0  0  0  0  0  0  0  0  0  0  0
  -16.6531   -5.4354    0.9114 C   0  0  0  0  0  0  0  0  0  0  0  0
  -16.3324   -4.5918    1.9602 C   0  0  0  0  0  0  0  0  0  0  0  0
  -16.8369   -3.3125    2.0635 C   0  0  0  0  0  0  0  0  0  0  0  0
  -17.7024   -2.8709    1.0611 C   0  0  0  0  0  0  0  0  0  0  0  0
  -18.2639   -1.4914    1.1462 C   0  0  0  0  0  0  0  0  0  0  0  0
  -18.0268   -3.7102    0.0098 C   0  0  0  0  0  0  0  0  0  0  0  0
  -14.3524   -7.0094   -3.4743 C   0  0  0  0  0  0  0  0  0  0  0  0
   -8.2815   -7.1008   -5.9479 H   0  0  0  0  0  0  0  0  0  0  0  0
   -9.7350   -6.2456   -6.5162 H   0  0  0  0  0  0  0  0  0  0  0  0
   -9.0755   -5.9028   -4.8984 H   0  0  0  0  0  0  0  0  0  0  0  0
   -9.5016   -8.6612   -4.9319 H   0  0  0  0  0  0  0  0  0  0  0  0
  -10.9339   -7.9646   -5.7424 H   0  0  0  0  0  0  0  0  0  0  0  0
  -12.3948   -7.8152   -6.0894 H   0  0  0  0  0  0  0  0  0  0  0  0
  -14.6333   -7.8502   -7.1692 H   0  0  0  0  0  0  0  0  0  0  0  0
  -15.8019   -5.9100   -1.5782 H   0  0  0  0  0  0  0  0  0  0  0  0
  -18.3659   -6.7491   -0.8644 H   0  0  0  0  0  0  0  0  0  0  0  0
  -18.6134   -5.2963   -1.8403 H   0  0  0  0  0  0  0  0  0  0  0  0
  -16.2358   -6.4411    0.8613 H   0  0  0  0  0  0  0  0  0  0  0  0
  -15.6551   -4.9522    2.7344 H   0  0  0  0  0  0  0  0  0  0  0  0
  -16.5687   -2.6674    2.9002 H   0  0  0  0  0  0  0  0  0  0  0  0
  -19.2299   -1.5234    1.6502 H   0  0  0  0  0  0  0  0  0  0  0  0
  -17.5816   -0.8549    1.7097 H   0  0  0  0  0  0  0  0  0  0  0  0
  -18.3920   -1.0880    0.1417 H   0  0  0  0  0  0  0  0  0  0  0  0
  -18.7033   -3.3584   -0.7691 H   0  0  0  0  0  0  0  0  0  0  0  0
  -14.2805   -6.7679   -2.4138 H   0  0  0  0  0  0  0  0  0  0  0  0
  -17.8136   -6.1139   -5.7163 S   0  0  0  0  0  0  0  0  0  0  0  0
  -18.9187   -6.9181   -6.7211 C   0  0  0  0  0  0  0  0  0  0  0  0
  -18.4141   -8.1429   -7.1833 C   0  0  0  0  0  0  0  0  0  0  0  0
  -17.1124   -8.3895   -6.6918 C   0  0  0  0  0  0  0  0  0  0  0  0
  -16.6569   -7.3472   -5.8662 C   0  0  0  0  0  0  0  0  0  0  0  0
  -20.2708   -6.3257   -7.0367 C   0  0  0  0  0  0  0  0  0  0  0  0
  -18.9597   -8.8093   -7.8345 H   0  0  0  0  0  0  0  0  0  0  0  0
  -16.5368   -9.2736   -6.9222 H   0  0  0  0  0  0  0  0  0  0  0  0
  -21.0038   -6.6515   -6.2995 H   0  0  0  0  0  0  0  0  0  0  0  0
  -20.2181   -5.2373   -7.0176 H   0  0  0  0  0  0  0  0  0  0  0  0
  -20.6042   -6.6397   -8.0257 H   0  0  0  0  0  0  0  0  0  0  0  0
  1  2  1  0
  2  3  1  0
  3  4  1  0
  4  5  2  0
  5  6  1  0
  6  7  2  0
  7  8  1  0
  8  9  2  0
  9 10  1  0
 10 11  2  0
 11 12  1  0
 12 13  1  0
 13 14  2  0
 13 15  1  0
 15 16  1  0
 16 17  1  0
 17 18  2  0
 18 19  1  0
 19 20  2  0
 20 21  1  0
 21 22  1  0
 21 23  2  0
 12 24  2  0
  3  7  1  0
  8 24  1  0
 17 23  1  0
  1 25  1  0
  1 26  1  0
  1 27  1  0
  2 28  1  0
  2 29  1  0
  9 30  1  0
 10 31  1  0
 15 32  1  0
 16 33  1  0
 16 34  1  0
 18 35  1  0
 19 36  1  0
 20 37  1  0
 22 38  1  0
 22 39  1  0
 22 40  1  0
 23 41  1  0
 24 42  1  0
 43 44  1  0
 43 47  1  0
 44 45  2  0
 44 48  1  0
 45 46  1  0
 45 49  1  0
 46 47  2  0
 46 50  1  0
 48 51  1  0
 48 52  1  0
 48 53  1  0
 11 47  1  0
M  END
>  <CHROM.1>  (91) 
-61.21881374,-2.92414870,13.81509078,-168.53354661,-62.78859739,-14.60626922
-6.05811051,-2.36166533,-0.75171827,-0.07503907,1.05483303

>  <Name>  (91) 
design_10

>  <RI>  (91) 
37398200.000000

>  <Rbt.Current_Directory>  (91) 
/pylon5/mc5pksp/smaltr/gateway_workdirs/PROCESS_93251df5-8da2-4fa9-b874-71853b29d1ad

>  <Rbt.Executable>  (91) 
rbdock ($Id: //depot/dev/client3/rdock/2013.1/src/exe/rbdock.cxx#4 $)

>  <Rbt.Library>  (91) 
libRbt.so (2013.1, Build901 2013/11/27)

>  <Rbt.Parameter_File>  (91) 
/home/smaltr/software/rDock_2013.1_src//data/scripts/dock.prm

>  <Rbt.Receptor>  (91) 
/pylon5/mc5pksp/smaltr/gateway_workdirs/PROCESS_93251df5-8da2-4fa9-b874-71853b29d1ad/output/SnD-Target-Sep02/cavity/pocket_docking.prm

>  <SCORE>  (91) 
-18.959500

>  <SCORE.INTER>  (91) 
-19.705700

>  <SCORE.INTER.CONST>  (91) 
1

>  <SCORE.INTER.POLAR>  (91) 
-2.008240

>  <SCORE.INTER.REPUL>  (91) 
0

>  <SCORE.INTER.ROT>  (91) 
5

>  <SCORE.INTER.VDW>  (91) 
-23.277600

>  <SCORE.INTER.norm>  (91) 
-0.821069

>  <SCORE.INTRA>  (91) 
0.746124

>  <SCORE.INTRA.DIHEDRAL>  (91) 
-0.309032

>  <SCORE.INTRA.DIHEDRAL.0>  (91) 
5.396800

>  <SCORE.INTRA.POLAR>  (91) 
0

>  <SCORE.INTRA.POLAR.0>  (91) 
0

>  <SCORE.INTRA.REPUL>  (91) 
0

>  <SCORE.INTRA.REPUL.0>  (91) 
0

>  <SCORE.INTRA.VDW>  (91) 
0.900640

>  <SCORE.INTRA.VDW.0>  (91) 
-1.932270

>  <SCORE.INTRA.norm>  (91) 
0.031089

>  <SCORE.RESTR>  (91) 
0

>  <SCORE.RESTR.CAVITY>  (91) 
0

>  <SCORE.RESTR.norm>  (91) 
0

>  <SCORE.SYSTEM>  (91) 
0

>  <SCORE.SYSTEM.CONST>  (91) 
0

>  <SCORE.SYSTEM.DIHEDRAL>  (91) 
0

>  <SCORE.SYSTEM.norm>  (91) 
0

>  <SCORE.heavy>  (91) 
24

>  <SCORE.norm>  (91) 
-0.789980

>  <SMILES>  (91) 
CCn1nnnc1-c1cccc(C(=O)NCc2cccc(C)c2)c1

>  <Cycle>  (91) 
228

>  <MolWeight>  (91) 
321.384000

>  <LogP>  (91) 
2.598420

>  <QED>  (91) 
0.783778

>  <SAS>  (91) 
1

$$$$
design_10
     RDKit          3D

 53 56  0  0  0  0  0  0  0  0999 V2000
   -9.2400   -6.6781   -5.6467 C   0  0  0  0  0  0  0  0  0  0  0  0
  -10.1048   -7.7630   -5.0642 C   0  0  0  0  0  0  0  0  0  0  0  0
  -10.6308   -7.3563   -3.7722 N   0  0  0  0  0  0  0  0  0  0  0  0
   -9.8244   -7.0657   -2.7098 N   0  0  0  0  0  0  0  0  0  0  0  0
  -10.6201   -6.7056   -1.7399 N   0  0  0  0  0  0  0  0  0  0  0  0
  -11.8607   -6.7621   -2.1537 N   0  0  0  0  0  0  0  0  0  0  0  0
  -11.8956   -7.1814   -3.4656 C   0  0  0  0  0  0  0  0  0  0  0  0
  -13.1555   -7.2885   -4.1713 C   0  0  0  0  0  0  0  0  0  0  0  0
  -13.2828   -7.5892   -5.4990 C   0  0  0  0  0  0  0  0  0  0  0  0
  -14.5493   -7.6094   -6.1094 C   0  0  0  0  0  0  0  0  0  0  0  0
  -15.6865   -7.3278   -5.3814 C   0  0  0  0  0  0  0  0  0  0  0  0
  -15.5955   -7.0228   -4.0448 C   0  0  0  0  0  0  0  0  0  0  0  0
  -16.7974   -6.7096   -3.2446 C   0  0  0  0  0  0  0  0  0  0  0  0
  -17.9344   -6.9735   -3.7168 O   0  0  0  0  0  0  0  0  0  0  0  0
  -16.7085   -6.1244   -1.9683 N   0  0  0  0  0  0  0  0  0  0  0  0
  -17.8981   -5.8284   -1.2131 C   0  0  0  0  0  0  0  0  0  0  0  0
  -17.5076   -4.9830   -0.0668 C   0  0  0  0  0  0  0  0  0  0  0  0
  -16.6531   -5.4354    0.9114 C   0  0  0  0  0  0  0  0  0  0  0  0
  -16.3324   -4.5918    1.9602 C   0  0  0  0  0  0  0  0  0  0  0  0
  -16.8369   -3.3125    2.0635 C   0  0  0  0  0  0  0  0  0  0  0  0
  -17.7024   -2.8709    1.0611 C   0  0  0  0  0  0  0  0  0  0  0  0
  -18.2639   -1.4914    1.1462 C   0  0  0  0  0  0  0  0  0  0  0  0
  -18.0268   -3.7102    0.0098 C   0  0  0  0  0  0  0  0  0  0  0  0
  -14.3524   -7.0094   -3.4743 C   0  0  0  0  0  0  0  0  0  0  0  0
   -8.2815   -7.1008   -5.9479 H   0  0  0  0  0  0  0  0  0  0  0  0
   -9.7350   -6.2456   -6.5162 H   0  0  0  0  0  0  0  0  0  0  0  0
   -9.0755   -5.9028   -4.8984 H   0  0  0  0  0  0  0  0  0  0  0  0
   -9.5016   -8.6612   -4.9319 H   0  0  0  0  0  0  0  0  0  0  0  0
  -10.9339   -7.9646   -5.7424 H   0  0  0  0  0  0  0  0  0  0  0  0
  -14.6333   -7.8502   -7.1692 H   0  0  0  0  0  0  0  0  0  0  0  0
  -16.6614   -7.3473   -5.8685 H   0  0  0  0  0  0  0  0  0  0  0  0
  -15.8019   -5.9100   -1.5782 H   0  0  0  0  0  0  0  0  0  0  0  0
  -18.3659   -6.7491   -0.8644 H   0  0  0  0  0  0  0  0  0  0  0  0
  -18.6134   -5.2963   -1.8403 H   0  0  0  0  0  0  0  0  0  0  0  0
  -16.2358   -6.4411    0.8613 H   0  0  0  0  0  0  0  0  0  0  0  0
  -15.6551   -4.9522    2.7344 H   0  0  0  0  0  0  0  0  0  0  0  0
  -16.5687   -2.6674    2.9002 H   0  0  0  0  0  0  0  0  0  0  0  0
  -19.2299   -1.5234    1.6502 H   0  0  0  0  0  0  0  0  0  0  0  0
  -17.5816   -0.8549    1.7097 H   0  0  0  0  0  0  0  0  0  0  0  0
  -18.3920   -1.0880    0.1417 H   0  0  0  0  0  0  0  0  0  0  0  0
  -18.7033   -3.3584   -0.7691 H   0  0  0  0  0  0  0  0  0  0  0  0
  -14.2805   -6.7679   -2.4138 H   0  0  0  0  0  0  0  0  0  0  0  0
  -12.4462   -8.3986   -7.6797 S   0  0  0  0  0  0  0  0  0  0  0  0
  -10.7547   -8.4582   -7.7932 C   0  0  0  0  0  0  0  0  0  0  0  0
  -10.1330   -8.0312   -6.6102 C   0  0  0  0  0  0  0  0  0  0  0  0
  -11.0792   -7.6601   -5.6284 C   0  0  0  0  0  0  0  0  0  0  0  0
  -12.3990   -7.8141   -6.0866 C   0  0  0  0  0  0  0  0  0  0  0  0
  -10.0666   -8.9285   -9.0518 C   0  0  0  0  0  0  0  0  0  0  0  0
   -9.0625   -7.9934   -6.4747 H   0  0  0  0  0  0  0  0  0  0  0  0
  -10.8193   -7.3017   -4.6435 H   0  0  0  0  0  0  0  0  0  0  0  0
   -9.9059  -10.0053   -9.0109 H   0  0  0  0  0  0  0  0  0  0  0  0
  -10.6803   -8.7011   -9.9232 H   0  0  0  0  0  0  0  0  0  0  0  0
   -9.1024   -8.4338   -9.1678 H   0  0  0  0  0  0  0  0  0  0  0  0
  1  2  1  0
  2  3  1  0
  3  4  1  0
  4  5  2  0
  5  6  1  0
  6  7  2  0
  7  8  1  0
  8  9  1  0
  9 10  2  0
 10 11  1  0
 11 12  2  0
 12 13  1  0
 13 14  2  0
 13 15  1  0
 15 16  1  0
 16 17  1  0
 17 18  2  0
 18 19  1  0
 19 20  2  0
 20 21  1  0
 21 22  1  0
 21 23  2  0
 12 24  1  0
  3  7  1  0
  8 24  2  0
 17 23  1  0
  1 25  1  0
  1 26  1  0
  1 27  1  0
  2 28  1  0
  2 29  1  0
 10 30  1  0
 11 31  1  0
 15 32  1  0
 16 33  1  0
 16 34  1  0
 18 35  1  0
 19 36  1  0
 20 37  1  0
 22 38  1  0
 22 39  1  0
 22 40  1  0
 23 41  1  0
 24 42  1  0
 43 44  1  0
 43 47  1  0
 44 45  2  0
 44 48  1  0
 45 46  1  0
 45 49  1  0
 46 47  2  0
 46 50  1  0
 48 51  1  0
 48 52  1  0
 48 53  1  0
  9 47  1  0
M  END
>  <CHROM.1>  (92) 
-61.21881374,-2.92414870,13.81509078,-168.53354661,-62.78859739,-14.60626922
-6.05811051,-2.36166533,-0.75171827,-0.07503907,1.05483303

>  <Name>  (92) 
design_10

>  <RI>  (92) 
37398200.000000

>  <Rbt.Current_Directory>  (92) 
/pylon5/mc5pksp/smaltr/gateway_workdirs/PROCESS_93251df5-8da2-4fa9-b874-71853b29d1ad

>  <Rbt.Executable>  (92) 
rbdock ($Id: //depot/dev/client3/rdock/2013.1/src/exe/rbdock.cxx#4 $)

>  <Rbt.Library>  (92) 
libRbt.so (2013.1, Build901 2013/11/27)

>  <Rbt.Parameter_File>  (92) 
/home/smaltr/software/rDock_2013.1_src//data/scripts/dock.prm

>  <Rbt.Receptor>  (92) 
/pylon5/mc5pksp/smaltr/gateway_workdirs/PROCESS_93251df5-8da2-4fa9-b874-71853b29d1ad/output/SnD-Target-Sep02/cavity/pocket_docking.prm

>  <SCORE>  (92) 
-18.959500

>  <SCORE.INTER>  (92) 
-19.705700

>  <SCORE.INTER.CONST>  (92) 
1

>  <SCORE.INTER.POLAR>  (92) 
-2.008240

>  <SCORE.INTER.REPUL>  (92) 
0

>  <SCORE.INTER.ROT>  (92) 
5

>  <SCORE.INTER.VDW>  (92) 
-23.277600

>  <SCORE.INTER.norm>  (92) 
-0.821069

>  <SCORE.INTRA>  (92) 
0.746124

>  <SCORE.INTRA.DIHEDRAL>  (92) 
-0.309032

>  <SCORE.INTRA.DIHEDRAL.0>  (92) 
5.396800

>  <SCORE.INTRA.POLAR>  (92) 
0

>  <SCORE.INTRA.POLAR.0>  (92) 
0

>  <SCORE.INTRA.REPUL>  (92) 
0

>  <SCORE.INTRA.REPUL.0>  (92) 
0

>  <SCORE.INTRA.VDW>  (92) 
0.900640

>  <SCORE.INTRA.VDW.0>  (92) 
-1.932270

>  <SCORE.INTRA.norm>  (92) 
0.031089

>  <SCORE.RESTR>  (92) 
0

>  <SCORE.RESTR.CAVITY>  (92) 
0

>  <SCORE.RESTR.norm>  (92) 
0

>  <SCORE.SYSTEM>  (92) 
0

>  <SCORE.SYSTEM.CONST>  (92) 
0

>  <SCORE.SYSTEM.DIHEDRAL>  (92) 
0

>  <SCORE.SYSTEM.norm>  (92) 
0

>  <SCORE.heavy>  (92) 
24

>  <SCORE.norm>  (92) 
-0.789980

>  <SMILES>  (92) 
CCn1nnnc1-c1cccc(C(=O)NCc2cccc(C)c2)c1

>  <Cycle>  (92) 
228

>  <MolWeight>  (92) 
321.384000

>  <LogP>  (92) 
2.598420

>  <QED>  (92) 
0.783778

>  <SAS>  (92) 
1

$$$$
design_10
     RDKit          3D

 53 56  0  0  0  0  0  0  0  0999 V2000
   -9.2400   -6.6781   -5.6467 C   0  0  0  0  0  0  0  0  0  0  0  0
  -10.1048   -7.7630   -5.0642 C   0  0  0  0  0  0  0  0  0  0  0  0
  -10.6308   -7.3563   -3.7722 N   0  0  0  0  0  0  0  0  0  0  0  0
   -9.8244   -7.0657   -2.7098 N   0  0  0  0  0  0  0  0  0  0  0  0
  -10.6201   -6.7056   -1.7399 N   0  0  0  0  0  0  0  0  0  0  0  0
  -11.8607   -6.7621   -2.1537 N   0  0  0  0  0  0  0  0  0  0  0  0
  -11.8956   -7.1814   -3.4656 C   0  0  0  0  0  0  0  0  0  0  0  0
  -13.1555   -7.2885   -4.1713 C   0  0  0  0  0  0  0  0  0  0  0  0
  -13.2828   -7.5892   -5.4990 C   0  0  0  0  0  0  0  0  0  0  0  0
  -14.5493   -7.6094   -6.1094 C   0  0  0  0  0  0  0  0  0  0  0  0
  -15.6865   -7.3278   -5.3814 C   0  0  0  0  0  0  0  0  0  0  0  0
  -15.5955   -7.0228   -4.0448 C   0  0  0  0  0  0  0  0  0  0  0  0
  -16.7974   -6.7096   -3.2446 C   0  0  0  0  0  0  0  0  0  0  0  0
  -17.9344   -6.9735   -3.7168 O   0  0  0  0  0  0  0  0  0  0  0  0
  -16.7085   -6.1244   -1.9683 N   0  0  0  0  0  0  0  0  0  0  0  0
  -17.8981   -5.8284   -1.2131 C   0  0  0  0  0  0  0  0  0  0  0  0
  -17.5076   -4.9830   -0.0668 C   0  0  0  0  0  0  0  0  0  0  0  0
  -16.6531   -5.4354    0.9114 C   0  0  0  0  0  0  0  0  0  0  0  0
  -16.3324   -4.5918    1.9602 C   0  0  0  0  0  0  0  0  0  0  0  0
  -16.8369   -3.3125    2.0635 C   0  0  0  0  0  0  0  0  0  0  0  0
  -17.7024   -2.8709    1.0611 C   0  0  0  0  0  0  0  0  0  0  0  0
  -18.2639   -1.4914    1.1462 C   0  0  0  0  0  0  0  0  0  0  0  0
  -18.0268   -3.7102    0.0098 C   0  0  0  0  0  0  0  0  0  0  0  0
  -14.3524   -7.0094   -3.4743 C   0  0  0  0  0  0  0  0  0  0  0  0
   -8.2815   -7.1008   -5.9479 H   0  0  0  0  0  0  0  0  0  0  0  0
   -9.7350   -6.2456   -6.5162 H   0  0  0  0  0  0  0  0  0  0  0  0
   -9.0755   -5.9028   -4.8984 H   0  0  0  0  0  0  0  0  0  0  0  0
   -9.5016   -8.6612   -4.9319 H   0  0  0  0  0  0  0  0  0  0  0  0
  -10.9339   -7.9646   -5.7424 H   0  0  0  0  0  0  0  0  0  0  0  0
  -12.3948   -7.8152   -6.0894 H   0  0  0  0  0  0  0  0  0  0  0  0
  -14.6333   -7.8502   -7.1692 H   0  0  0  0  0  0  0  0  0  0  0  0
  -16.6614   -7.3473   -5.8685 H   0  0  0  0  0  0  0  0  0  0  0  0
  -15.8019   -5.9100   -1.5782 H   0  0  0  0  0  0  0  0  0  0  0  0
  -18.3659   -6.7491   -0.8644 H   0  0  0  0  0  0  0  0  0  0  0  0
  -18.6134   -5.2963   -1.8403 H   0  0  0  0  0  0  0  0  0  0  0  0
  -16.2358   -6.4411    0.8613 H   0  0  0  0  0  0  0  0  0  0  0  0
  -15.6551   -4.9522    2.7344 H   0  0  0  0  0  0  0  0  0  0  0  0
  -16.5687   -2.6674    2.9002 H   0  0  0  0  0  0  0  0  0  0  0  0
  -19.2299   -1.5234    1.6502 H   0  0  0  0  0  0  0  0  0  0  0  0
  -17.5816   -0.8549    1.7097 H   0  0  0  0  0  0  0  0  0  0  0  0
  -18.3920   -1.0880    0.1417 H   0  0  0  0  0  0  0  0  0  0  0  0
  -18.7033   -3.3584   -0.7691 H   0  0  0  0  0  0  0  0  0  0  0  0
  -13.3184   -5.5163   -1.7974 S   0  0  0  0  0  0  0  0  0  0  0  0
  -13.7825   -5.8441   -0.1990 C   0  0  0  0  0  0  0  0  0  0  0  0
  -14.6809   -6.9191   -0.1224 C   0  0  0  0  0  0  0  0  0  0  0  0
  -14.9680   -7.4509   -1.3997 C   0  0  0  0  0  0  0  0  0  0  0  0
  -14.2808   -6.7690   -2.4187 C   0  0  0  0  0  0  0  0  0  0  0  0
  -13.2495   -5.0332    0.9572 C   0  0  0  0  0  0  0  0  0  0  0  0
  -15.0973   -7.2883    0.8028 H   0  0  0  0  0  0  0  0  0  0  0  0
  -15.6349   -8.2824   -1.5722 H   0  0  0  0  0  0  0  0  0  0  0  0
  -12.3329   -5.4820    1.3385 H   0  0  0  0  0  0  0  0  0  0  0  0
  -13.0302   -4.0159    0.6334 H   0  0  0  0  0  0  0  0  0  0  0  0
  -13.9814   -4.9905    1.7636 H   0  0  0  0  0  0  0  0  0  0  0  0
  1  2  1  0
  2  3  1  0
  3  4  1  0
  4  5  2  0
  5  6  1  0
  6  7  2  0
  7  8  1  0
  8  9  2  0
  9 10  1  0
 10 11  2  0
 11 12  1  0
 12 13  1  0
 13 14  2  0
 13 15  1  0
 15 16  1  0
 16 17  1  0
 17 18  2  0
 18 19  1  0
 19 20  2  0
 20 21  1  0
 21 22  1  0
 21 23  2  0
 12 24  2  0
  3  7  1  0
  8 24  1  0
 17 23  1  0
  1 25  1  0
  1 26  1  0
  1 27  1  0
  2 28  1  0
  2 29  1  0
  9 30  1  0
 10 31  1  0
 11 32  1  0
 15 33  1  0
 16 34  1  0
 16 35  1  0
 18 36  1  0
 19 37  1  0
 20 38  1  0
 22 39  1  0
 22 40  1  0
 22 41  1  0
 23 42  1  0
 43 44  1  0
 43 47  1  0
 44 45  2  0
 44 48  1  0
 45 46  1  0
 45 49  1  0
 46 47  2  0
 46 50  1  0
 48 51  1  0
 48 52  1  0
 48 53  1  0
 24 47  1  0
M  END
>  <CHROM.1>  (93) 
-61.21881374,-2.92414870,13.81509078,-168.53354661,-62.78859739,-14.60626922
-6.05811051,-2.36166533,-0.75171827,-0.07503907,1.05483303

>  <Name>  (93) 
design_10

>  <RI>  (93) 
37398200.000000

>  <Rbt.Current_Directory>  (93) 
/pylon5/mc5pksp/smaltr/gateway_workdirs/PROCESS_93251df5-8da2-4fa9-b874-71853b29d1ad

>  <Rbt.Executable>  (93) 
rbdock ($Id: //depot/dev/client3/rdock/2013.1/src/exe/rbdock.cxx#4 $)

>  <Rbt.Library>  (93) 
libRbt.so (2013.1, Build901 2013/11/27)

>  <Rbt.Parameter_File>  (93) 
/home/smaltr/software/rDock_2013.1_src//data/scripts/dock.prm

>  <Rbt.Receptor>  (93) 
/pylon5/mc5pksp/smaltr/gateway_workdirs/PROCESS_93251df5-8da2-4fa9-b874-71853b29d1ad/output/SnD-Target-Sep02/cavity/pocket_docking.prm

>  <SCORE>  (93) 
-18.959500

>  <SCORE.INTER>  (93) 
-19.705700

>  <SCORE.INTER.CONST>  (93) 
1

>  <SCORE.INTER.POLAR>  (93) 
-2.008240

>  <SCORE.INTER.REPUL>  (93) 
0

>  <SCORE.INTER.ROT>  (93) 
5

>  <SCORE.INTER.VDW>  (93) 
-23.277600

>  <SCORE.INTER.norm>  (93) 
-0.821069

>  <SCORE.INTRA>  (93) 
0.746124

>  <SCORE.INTRA.DIHEDRAL>  (93) 
-0.309032

>  <SCORE.INTRA.DIHEDRAL.0>  (93) 
5.396800

>  <SCORE.INTRA.POLAR>  (93) 
0

>  <SCORE.INTRA.POLAR.0>  (93) 
0

>  <SCORE.INTRA.REPUL>  (93) 
0

>  <SCORE.INTRA.REPUL.0>  (93) 
0

>  <SCORE.INTRA.VDW>  (93) 
0.900640

>  <SCORE.INTRA.VDW.0>  (93) 
-1.932270

>  <SCORE.INTRA.norm>  (93) 
0.031089

>  <SCORE.RESTR>  (93) 
0

>  <SCORE.RESTR.CAVITY>  (93) 
0

>  <SCORE.RESTR.norm>  (93) 
0

>  <SCORE.SYSTEM>  (93) 
0

>  <SCORE.SYSTEM.CONST>  (93) 
0

>  <SCORE.SYSTEM.DIHEDRAL>  (93) 
0

>  <SCORE.SYSTEM.norm>  (93) 
0

>  <SCORE.heavy>  (93) 
24

>  <SCORE.norm>  (93) 
-0.789980

>  <SMILES>  (93) 
CCn1nnnc1-c1cccc(C(=O)NCc2cccc(C)c2)c1

>  <Cycle>  (93) 
228

>  <MolWeight>  (93) 
321.384000

>  <LogP>  (93) 
2.598420

>  <QED>  (93) 
0.783778

>  <SAS>  (93) 
1

$$$$
design_10
     RDKit          3D

 53 56  0  0  0  0  0  0  0  0999 V2000
   -9.2400   -6.6781   -5.6467 C   0  0  0  0  0  0  0  0  0  0  0  0
  -10.1048   -7.7630   -5.0642 C   0  0  0  0  0  0  0  0  0  0  0  0
  -10.6308   -7.3563   -3.7722 N   0  0  0  0  0  0  0  0  0  0  0  0
   -9.8244   -7.0657   -2.7098 N   0  0  0  0  0  0  0  0  0  0  0  0
  -10.6201   -6.7056   -1.7399 N   0  0  0  0  0  0  0  0  0  0  0  0
  -11.8607   -6.7621   -2.1537 N   0  0  0  0  0  0  0  0  0  0  0  0
  -11.8956   -7.1814   -3.4656 C   0  0  0  0  0  0  0  0  0  0  0  0
  -13.1555   -7.2885   -4.1713 C   0  0  0  0  0  0  0  0  0  0  0  0
  -13.2828   -7.5892   -5.4990 C   0  0  0  0  0  0  0  0  0  0  0  0
  -14.5493   -7.6094   -6.1094 C   0  0  0  0  0  0  0  0  0  0  0  0
  -15.6865   -7.3278   -5.3814 C   0  0  0  0  0  0  0  0  0  0  0  0
  -15.5955   -7.0228   -4.0448 C   0  0  0  0  0  0  0  0  0  0  0  0
  -16.7974   -6.7096   -3.2446 C   0  0  0  0  0  0  0  0  0  0  0  0
  -17.9344   -6.9735   -3.7168 O   0  0  0  0  0  0  0  0  0  0  0  0
  -16.7085   -6.1244   -1.9683 N   0  0  0  0  0  0  0  0  0  0  0  0
  -17.8981   -5.8284   -1.2131 C   0  0  0  0  0  0  0  0  0  0  0  0
  -17.5076   -4.9830   -0.0668 C   0  0  0  0  0  0  0  0  0  0  0  0
  -16.6531   -5.4354    0.9114 C   0  0  0  0  0  0  0  0  0  0  0  0
  -16.3324   -4.5918    1.9602 C   0  0  0  0  0  0  0  0  0  0  0  0
  -16.8369   -3.3125    2.0635 C   0  0  0  0  0  0  0  0  0  0  0  0
  -17.7024   -2.8709    1.0611 C   0  0  0  0  0  0  0  0  0  0  0  0
  -18.2639   -1.4914    1.1462 C   0  0  0  0  0  0  0  0  0  0  0  0
  -18.0268   -3.7102    0.0098 C   0  0  0  0  0  0  0  0  0  0  0  0
  -14.3524   -7.0094   -3.4743 C   0  0  0  0  0  0  0  0  0  0  0  0
   -8.2815   -7.1008   -5.9479 H   0  0  0  0  0  0  0  0  0  0  0  0
   -9.7350   -6.2456   -6.5162 H   0  0  0  0  0  0  0  0  0  0  0  0
   -9.0755   -5.9028   -4.8984 H   0  0  0  0  0  0  0  0  0  0  0  0
   -9.5016   -8.6612   -4.9319 H   0  0  0  0  0  0  0  0  0  0  0  0
  -10.9339   -7.9646   -5.7424 H   0  0  0  0  0  0  0  0  0  0  0  0
  -12.3948   -7.8152   -6.0894 H   0  0  0  0  0  0  0  0  0  0  0  0
  -14.6333   -7.8502   -7.1692 H   0  0  0  0  0  0  0  0  0  0  0  0
  -16.6614   -7.3473   -5.8685 H   0  0  0  0  0  0  0  0  0  0  0  0
  -15.8019   -5.9100   -1.5782 H   0  0  0  0  0  0  0  0  0  0  0  0
  -18.3659   -6.7491   -0.8644 H   0  0  0  0  0  0  0  0  0  0  0  0
  -18.6134   -5.2963   -1.8403 H   0  0  0  0  0  0  0  0  0  0  0  0
  -16.2358   -6.4411    0.8613 H   0  0  0  0  0  0  0  0  0  0  0  0
  -15.6551   -4.9522    2.7344 H   0  0  0  0  0  0  0  0  0  0  0  0
  -19.2299   -1.5234    1.6502 H   0  0  0  0  0  0  0  0  0  0  0  0
  -17.5816   -0.8549    1.7097 H   0  0  0  0  0  0  0  0  0  0  0  0
  -18.3920   -1.0880    0.1417 H   0  0  0  0  0  0  0  0  0  0  0  0
  -18.7033   -3.3584   -0.7691 H   0  0  0  0  0  0  0  0  0  0  0  0
  -14.2805   -6.7679   -2.4138 H   0  0  0  0  0  0  0  0  0  0  0  0
  -14.9827   -2.1738    3.2364 S   0  0  0  0  0  0  0  0  0  0  0  0
  -15.4685   -1.2756    4.5911 C   0  0  0  0  0  0  0  0  0  0  0  0
  -16.8541   -1.3464    4.7994 C   0  0  0  0  0  0  0  0  0  0  0  0
  -17.4879   -2.1485    3.8239 C   0  0  0  0  0  0  0  0  0  0  0  0
  -16.5700   -2.6704    2.8963 C   0  0  0  0  0  0  0  0  0  0  0  0
  -14.4705   -0.5145    5.4297 C   0  0  0  0  0  0  0  0  0  0  0  0
  -17.3656   -0.8462    5.6081 H   0  0  0  0  0  0  0  0  0  0  0  0
  -18.5505   -2.3385    3.7950 H   0  0  0  0  0  0  0  0  0  0  0  0
  -14.0927   -1.1493    6.2306 H   0  0  0  0  0  0  0  0  0  0  0  0
  -13.6301   -0.1932    4.8147 H   0  0  0  0  0  0  0  0  0  0  0  0
  -14.9352    0.3673    5.8703 H   0  0  0  0  0  0  0  0  0  0  0  0
  1  2  1  0
  2  3  1  0
  3  4  1  0
  4  5  2  0
  5  6  1  0
  6  7  2  0
  7  8  1  0
  8  9  2  0
  9 10  1  0
 10 11  2  0
 11 12  1  0
 12 13  1  0
 13 14  2  0
 13 15  1  0
 15 16  1  0
 16 17  1  0
 17 18  2  0
 18 19  1  0
 19 20  2  0
 20 21  1  0
 21 22  1  0
 21 23  2  0
 12 24  2  0
  3  7  1  0
  8 24  1  0
 17 23  1  0
  1 25  1  0
  1 26  1  0
  1 27  1  0
  2 28  1  0
  2 29  1  0
  9 30  1  0
 10 31  1  0
 11 32  1  0
 15 33  1  0
 16 34  1  0
 16 35  1  0
 18 36  1  0
 19 37  1  0
 22 38  1  0
 22 39  1  0
 22 40  1  0
 23 41  1  0
 24 42  1  0
 43 44  1  0
 43 47  1  0
 44 45  2  0
 44 48  1  0
 45 46  1  0
 45 49  1  0
 46 47  2  0
 46 50  1  0
 48 51  1  0
 48 52  1  0
 48 53  1  0
 20 47  1  0
M  END
>  <CHROM.1>  (94) 
-61.21881374,-2.92414870,13.81509078,-168.53354661,-62.78859739,-14.60626922
-6.05811051,-2.36166533,-0.75171827,-0.07503907,1.05483303

>  <Name>  (94) 
design_10

>  <RI>  (94) 
37398200.000000

>  <Rbt.Current_Directory>  (94) 
/pylon5/mc5pksp/smaltr/gateway_workdirs/PROCESS_93251df5-8da2-4fa9-b874-71853b29d1ad

>  <Rbt.Executable>  (94) 
rbdock ($Id: //depot/dev/client3/rdock/2013.1/src/exe/rbdock.cxx#4 $)

>  <Rbt.Library>  (94) 
libRbt.so (2013.1, Build901 2013/11/27)

>  <Rbt.Parameter_File>  (94) 
/home/smaltr/software/rDock_2013.1_src//data/scripts/dock.prm

>  <Rbt.Receptor>  (94) 
/pylon5/mc5pksp/smaltr/gateway_workdirs/PROCESS_93251df5-8da2-4fa9-b874-71853b29d1ad/output/SnD-Target-Sep02/cavity/pocket_docking.prm

>  <SCORE>  (94) 
-18.959500

>  <SCORE.INTER>  (94) 
-19.705700

>  <SCORE.INTER.CONST>  (94) 
1

>  <SCORE.INTER.POLAR>  (94) 
-2.008240

>  <SCORE.INTER.REPUL>  (94) 
0

>  <SCORE.INTER.ROT>  (94) 
5

>  <SCORE.INTER.VDW>  (94) 
-23.277600

>  <SCORE.INTER.norm>  (94) 
-0.821069

>  <SCORE.INTRA>  (94) 
0.746124

>  <SCORE.INTRA.DIHEDRAL>  (94) 
-0.309032

>  <SCORE.INTRA.DIHEDRAL.0>  (94) 
5.396800

>  <SCORE.INTRA.POLAR>  (94) 
0

>  <SCORE.INTRA.POLAR.0>  (94) 
0

>  <SCORE.INTRA.REPUL>  (94) 
0

>  <SCORE.INTRA.REPUL.0>  (94) 
0

>  <SCORE.INTRA.VDW>  (94) 
0.900640

>  <SCORE.INTRA.VDW.0>  (94) 
-1.932270

>  <SCORE.INTRA.norm>  (94) 
0.031089

>  <SCORE.RESTR>  (94) 
0

>  <SCORE.RESTR.CAVITY>  (94) 
0

>  <SCORE.RESTR.norm>  (94) 
0

>  <SCORE.SYSTEM>  (94) 
0

>  <SCORE.SYSTEM.CONST>  (94) 
0

>  <SCORE.SYSTEM.DIHEDRAL>  (94) 
0

>  <SCORE.SYSTEM.norm>  (94) 
0

>  <SCORE.heavy>  (94) 
24

>  <SCORE.norm>  (94) 
-0.789980

>  <SMILES>  (94) 
CCn1nnnc1-c1cccc(C(=O)NCc2cccc(C)c2)c1

>  <Cycle>  (94) 
228

>  <MolWeight>  (94) 
321.384000

>  <LogP>  (94) 
2.598420

>  <QED>  (94) 
0.783778

>  <SAS>  (94) 
1

$$$$
design_10
     RDKit          3D

 53 56  0  0  0  0  0  0  0  0999 V2000
   -9.2400   -6.6781   -5.6467 C   0  0  0  0  0  0  0  0  0  0  0  0
  -10.1048   -7.7630   -5.0642 C   0  0  0  0  0  0  0  0  0  0  0  0
  -10.6308   -7.3563   -3.7722 N   0  0  0  0  0  0  0  0  0  0  0  0
   -9.8244   -7.0657   -2.7098 N   0  0  0  0  0  0  0  0  0  0  0  0
  -10.6201   -6.7056   -1.7399 N   0  0  0  0  0  0  0  0  0  0  0  0
  -11.8607   -6.7621   -2.1537 N   0  0  0  0  0  0  0  0  0  0  0  0
  -11.8956   -7.1814   -3.4656 C   0  0  0  0  0  0  0  0  0  0  0  0
  -13.1555   -7.2885   -4.1713 C   0  0  0  0  0  0  0  0  0  0  0  0
  -13.2828   -7.5892   -5.4990 C   0  0  0  0  0  0  0  0  0  0  0  0
  -14.5493   -7.6094   -6.1094 C   0  0  0  0  0  0  0  0  0  0  0  0
  -15.6865   -7.3278   -5.3814 C   0  0  0  0  0  0  0  0  0  0  0  0
  -15.5955   -7.0228   -4.0448 C   0  0  0  0  0  0  0  0  0  0  0  0
  -16.7974   -6.7096   -3.2446 C   0  0  0  0  0  0  0  0  0  0  0  0
  -17.9344   -6.9735   -3.7168 O   0  0  0  0  0  0  0  0  0  0  0  0
  -16.7085   -6.1244   -1.9683 N   0  0  0  0  0  0  0  0  0  0  0  0
  -17.8981   -5.8284   -1.2131 C   0  0  0  0  0  0  0  0  0  0  0  0
  -17.5076   -4.9830   -0.0668 C   0  0  0  0  0  0  0  0  0  0  0  0
  -16.6531   -5.4354    0.9114 C   0  0  0  0  0  0  0  0  0  0  0  0
  -16.3324   -4.5918    1.9602 C   0  0  0  0  0  0  0  0  0  0  0  0
  -16.8369   -3.3125    2.0635 C   0  0  0  0  0  0  0  0  0  0  0  0
  -17.7024   -2.8709    1.0611 C   0  0  0  0  0  0  0  0  0  0  0  0
  -18.2639   -1.4914    1.1462 C   0  0  0  0  0  0  0  0  0  0  0  0
  -18.0268   -3.7102    0.0098 C   0  0  0  0  0  0  0  0  0  0  0  0
  -14.3524   -7.0094   -3.4743 C   0  0  0  0  0  0  0  0  0  0  0  0
   -8.2815   -7.1008   -5.9479 H   0  0  0  0  0  0  0  0  0  0  0  0
   -9.7350   -6.2456   -6.5162 H   0  0  0  0  0  0  0  0  0  0  0  0
   -9.0755   -5.9028   -4.8984 H   0  0  0  0  0  0  0  0  0  0  0  0
   -9.5016   -8.6612   -4.9319 H   0  0  0  0  0  0  0  0  0  0  0  0
  -10.9339   -7.9646   -5.7424 H   0  0  0  0  0  0  0  0  0  0  0  0
  -12.3948   -7.8152   -6.0894 H   0  0  0  0  0  0  0  0  0  0  0  0
  -14.6333   -7.8502   -7.1692 H   0  0  0  0  0  0  0  0  0  0  0  0
  -16.6614   -7.3473   -5.8685 H   0  0  0  0  0  0  0  0  0  0  0  0
  -15.8019   -5.9100   -1.5782 H   0  0  0  0  0  0  0  0  0  0  0  0
  -18.3659   -6.7491   -0.8644 H   0  0  0  0  0  0  0  0  0  0  0  0
  -18.6134   -5.2963   -1.8403 H   0  0  0  0  0  0  0  0  0  0  0  0
  -15.6551   -4.9522    2.7344 H   0  0  0  0  0  0  0  0  0  0  0  0
  -16.5687   -2.6674    2.9002 H   0  0  0  0  0  0  0  0  0  0  0  0
  -19.2299   -1.5234    1.6502 H   0  0  0  0  0  0  0  0  0  0  0  0
  -17.5816   -0.8549    1.7097 H   0  0  0  0  0  0  0  0  0  0  0  0
  -18.3920   -1.0880    0.1417 H   0  0  0  0  0  0  0  0  0  0  0  0
  -18.7033   -3.3584   -0.7691 H   0  0  0  0  0  0  0  0  0  0  0  0
  -14.2805   -6.7679   -2.4138 H   0  0  0  0  0  0  0  0  0  0  0  0
  -14.5735   -6.7709    0.8674 S   0  0  0  0  0  0  0  0  0  0  0  0
  -14.8281   -8.4453    0.7696 C   0  0  0  0  0  0  0  0  0  0  0  0
  -16.1929   -8.7680    0.7305 C   0  0  0  0  0  0  0  0  0  0  0  0
  -17.0040   -7.6122    0.7840 C   0  0  0  0  0  0  0  0  0  0  0  0
  -16.2377   -6.4364    0.8615 C   0  0  0  0  0  0  0  0  0  0  0  0
  -13.6727   -9.4159    0.7315 C   0  0  0  0  0  0  0  0  0  0  0  0
  -16.5690   -9.7782    0.6676 H   0  0  0  0  0  0  0  0  0  0  0  0
  -18.0835   -7.6300    0.7664 H   0  0  0  0  0  0  0  0  0  0  0  0
  -13.3715   -9.5995   -0.2993 H   0  0  0  0  0  0  0  0  0  0  0  0
  -12.8210   -9.0082    1.2756 H   0  0  0  0  0  0  0  0  0  0  0  0
  -13.9550  -10.3642    1.1888 H   0  0  0  0  0  0  0  0  0  0  0  0
  1  2  1  0
  2  3  1  0
  3  4  1  0
  4  5  2  0
  5  6  1  0
  6  7  2  0
  7  8  1  0
  8  9  2  0
  9 10  1  0
 10 11  2  0
 11 12  1  0
 12 13  1  0
 13 14  2  0
 13 15  1  0
 15 16  1  0
 16 17  1  0
 17 18  1  0
 18 19  2  0
 19 20  1  0
 20 21  2  0
 21 22  1  0
 21 23  1  0
 12 24  2  0
  3  7  1  0
  8 24  1  0
 17 23  2  0
  1 25  1  0
  1 26  1  0
  1 27  1  0
  2 28  1  0
  2 29  1  0
  9 30  1  0
 10 31  1  0
 11 32  1  0
 15 33  1  0
 16 34  1  0
 16 35  1  0
 19 36  1  0
 20 37  1  0
 22 38  1  0
 22 39  1  0
 22 40  1  0
 23 41  1  0
 24 42  1  0
 43 44  1  0
 43 47  1  0
 44 45  2  0
 44 48  1  0
 45 46  1  0
 45 49  1  0
 46 47  2  0
 46 50  1  0
 48 51  1  0
 48 52  1  0
 48 53  1  0
 18 47  1  0
M  END
>  <CHROM.1>  (95) 
-61.21881374,-2.92414870,13.81509078,-168.53354661,-62.78859739,-14.60626922
-6.05811051,-2.36166533,-0.75171827,-0.07503907,1.05483303

>  <Name>  (95) 
design_10

>  <RI>  (95) 
37398200.000000

>  <Rbt.Current_Directory>  (95) 
/pylon5/mc5pksp/smaltr/gateway_workdirs/PROCESS_93251df5-8da2-4fa9-b874-71853b29d1ad

>  <Rbt.Executable>  (95) 
rbdock ($Id: //depot/dev/client3/rdock/2013.1/src/exe/rbdock.cxx#4 $)

>  <Rbt.Library>  (95) 
libRbt.so (2013.1, Build901 2013/11/27)

>  <Rbt.Parameter_File>  (95) 
/home/smaltr/software/rDock_2013.1_src//data/scripts/dock.prm

>  <Rbt.Receptor>  (95) 
/pylon5/mc5pksp/smaltr/gateway_workdirs/PROCESS_93251df5-8da2-4fa9-b874-71853b29d1ad/output/SnD-Target-Sep02/cavity/pocket_docking.prm

>  <SCORE>  (95) 
-18.959500

>  <SCORE.INTER>  (95) 
-19.705700

>  <SCORE.INTER.CONST>  (95) 
1

>  <SCORE.INTER.POLAR>  (95) 
-2.008240

>  <SCORE.INTER.REPUL>  (95) 
0

>  <SCORE.INTER.ROT>  (95) 
5

>  <SCORE.INTER.VDW>  (95) 
-23.277600

>  <SCORE.INTER.norm>  (95) 
-0.821069

>  <SCORE.INTRA>  (95) 
0.746124

>  <SCORE.INTRA.DIHEDRAL>  (95) 
-0.309032

>  <SCORE.INTRA.DIHEDRAL.0>  (95) 
5.396800

>  <SCORE.INTRA.POLAR>  (95) 
0

>  <SCORE.INTRA.POLAR.0>  (95) 
0

>  <SCORE.INTRA.REPUL>  (95) 
0

>  <SCORE.INTRA.REPUL.0>  (95) 
0

>  <SCORE.INTRA.VDW>  (95) 
0.900640

>  <SCORE.INTRA.VDW.0>  (95) 
-1.932270

>  <SCORE.INTRA.norm>  (95) 
0.031089

>  <SCORE.RESTR>  (95) 
0

>  <SCORE.RESTR.CAVITY>  (95) 
0

>  <SCORE.RESTR.norm>  (95) 
0

>  <SCORE.SYSTEM>  (95) 
0

>  <SCORE.SYSTEM.CONST>  (95) 
0

>  <SCORE.SYSTEM.DIHEDRAL>  (95) 
0

>  <SCORE.SYSTEM.norm>  (95) 
0

>  <SCORE.heavy>  (95) 
24

>  <SCORE.norm>  (95) 
-0.789980

>  <SMILES>  (95) 
CCn1nnnc1-c1cccc(C(=O)NCc2cccc(C)c2)c1

>  <Cycle>  (95) 
228

>  <MolWeight>  (95) 
321.384000

>  <LogP>  (95) 
2.598420

>  <QED>  (95) 
0.783778

>  <SAS>  (95) 
1

$$$$
design_10
     RDKit          3D

 53 56  0  0  0  0  0  0  0  0999 V2000
   -9.2400   -6.6781   -5.6467 C   0  0  0  0  0  0  0  0  0  0  0  0
  -10.1048   -7.7630   -5.0642 C   0  0  0  0  0  0  0  0  0  0  0  0
  -10.6308   -7.3563   -3.7722 N   0  0  0  0  0  0  0  0  0  0  0  0
   -9.8244   -7.0657   -2.7098 N   0  0  0  0  0  0  0  0  0  0  0  0
  -10.6201   -6.7056   -1.7399 N   0  0  0  0  0  0  0  0  0  0  0  0
  -11.8607   -6.7621   -2.1537 N   0  0  0  0  0  0  0  0  0  0  0  0
  -11.8956   -7.1814   -3.4656 C   0  0  0  0  0  0  0  0  0  0  0  0
  -13.1555   -7.2885   -4.1713 C   0  0  0  0  0  0  0  0  0  0  0  0
  -13.2828   -7.5892   -5.4990 C   0  0  0  0  0  0  0  0  0  0  0  0
  -14.5493   -7.6094   -6.1094 C   0  0  0  0  0  0  0  0  0  0  0  0
  -15.6865   -7.3278   -5.3814 C   0  0  0  0  0  0  0  0  0  0  0  0
  -15.5955   -7.0228   -4.0448 C   0  0  0  0  0  0  0  0  0  0  0  0
  -16.7974   -6.7096   -3.2446 C   0  0  0  0  0  0  0  0  0  0  0  0
  -17.9344   -6.9735   -3.7168 O   0  0  0  0  0  0  0  0  0  0  0  0
  -16.7085   -6.1244   -1.9683 N   0  0  0  0  0  0  0  0  0  0  0  0
  -17.8981   -5.8284   -1.2131 C   0  0  0  0  0  0  0  0  0  0  0  0
  -17.5076   -4.9830   -0.0668 C   0  0  0  0  0  0  0  0  0  0  0  0
  -16.6531   -5.4354    0.9114 C   0  0  0  0  0  0  0  0  0  0  0  0
  -16.3324   -4.5918    1.9602 C   0  0  0  0  0  0  0  0  0  0  0  0
  -16.8369   -3.3125    2.0635 C   0  0  0  0  0  0  0  0  0  0  0  0
  -17.7024   -2.8709    1.0611 C   0  0  0  0  0  0  0  0  0  0  0  0
  -18.2639   -1.4914    1.1462 C   0  0  0  0  0  0  0  0  0  0  0  0
  -18.0268   -3.7102    0.0098 C   0  0  0  0  0  0  0  0  0  0  0  0
  -14.3524   -7.0094   -3.4743 C   0  0  0  0  0  0  0  0  0  0  0  0
   -8.2815   -7.1008   -5.9479 H   0  0  0  0  0  0  0  0  0  0  0  0
   -9.7350   -6.2456   -6.5162 H   0  0  0  0  0  0  0  0  0  0  0  0
   -9.0755   -5.9028   -4.8984 H   0  0  0  0  0  0  0  0  0  0  0  0
   -9.5016   -8.6612   -4.9319 H   0  0  0  0  0  0  0  0  0  0  0  0
  -10.9339   -7.9646   -5.7424 H   0  0  0  0  0  0  0  0  0  0  0  0
  -12.3948   -7.8152   -6.0894 H   0  0  0  0  0  0  0  0  0  0  0  0
  -14.6333   -7.8502   -7.1692 H   0  0  0  0  0  0  0  0  0  0  0  0
  -16.6614   -7.3473   -5.8685 H   0  0  0  0  0  0  0  0  0  0  0  0
  -15.8019   -5.9100   -1.5782 H   0  0  0  0  0  0  0  0  0  0  0  0
  -18.3659   -6.7491   -0.8644 H   0  0  0  0  0  0  0  0  0  0  0  0
  -18.6134   -5.2963   -1.8403 H   0  0  0  0  0  0  0  0  0  0  0  0
  -16.2358   -6.4411    0.8613 H   0  0  0  0  0  0  0  0  0  0  0  0
  -15.6551   -4.9522    2.7344 H   0  0  0  0  0  0  0  0  0  0  0  0
  -16.5687   -2.6674    2.9002 H   0  0  0  0  0  0  0  0  0  0  0  0
  -19.2299   -1.5234    1.6502 H   0  0  0  0  0  0  0  0  0  0  0  0
  -17.5816   -0.8549    1.7097 H   0  0  0  0  0  0  0  0  0  0  0  0
  -18.3920   -1.0880    0.1417 H   0  0  0  0  0  0  0  0  0  0  0  0
  -14.2805   -6.7679   -2.4138 H   0  0  0  0  0  0  0  0  0  0  0  0
  -19.0036   -4.2045   -2.2065 S   0  0  0  0  0  0  0  0  0  0  0  0
  -20.0808   -3.0203   -2.7678 C   0  0  0  0  0  0  0  0  0  0  0  0
  -20.2202   -1.9622   -1.8569 C   0  0  0  0  0  0  0  0  0  0  0  0
  -19.4262   -2.1581   -0.7046 C   0  0  0  0  0  0  0  0  0  0  0  0
  -18.7002   -3.3600   -0.7655 C   0  0  0  0  0  0  0  0  0  0  0  0
  -20.7718   -3.1546   -4.1031 C   0  0  0  0  0  0  0  0  0  0  0  0
  -20.8581   -1.1072   -2.0235 H   0  0  0  0  0  0  0  0  0  0  0  0
  -19.3818   -1.4665    0.1235 H   0  0  0  0  0  0  0  0  0  0  0  0
  -20.1678   -2.6961   -4.8853 H   0  0  0  0  0  0  0  0  0  0  0  0
  -20.9169   -4.2068   -4.3472 H   0  0  0  0  0  0  0  0  0  0  0  0
  -21.7459   -2.6662   -4.0801 H   0  0  0  0  0  0  0  0  0  0  0  0
  1  2  1  0
  2  3  1  0
  3  4  1  0
  4  5  2  0
  5  6  1  0
  6  7  2  0
  7  8  1  0
  8  9  2  0
  9 10  1  0
 10 11  2  0
 11 12  1  0
 12 13  1  0
 13 14  2  0
 13 15  1  0
 15 16  1  0
 16 17  1  0
 17 18  2  0
 18 19  1  0
 19 20  2  0
 20 21  1  0
 21 22  1  0
 21 23  2  0
 12 24  2  0
  3  7  1  0
  8 24  1  0
 17 23  1  0
  1 25  1  0
  1 26  1  0
  1 27  1  0
  2 28  1  0
  2 29  1  0
  9 30  1  0
 10 31  1  0
 11 32  1  0
 15 33  1  0
 16 34  1  0
 16 35  1  0
 18 36  1  0
 19 37  1  0
 20 38  1  0
 22 39  1  0
 22 40  1  0
 22 41  1  0
 24 42  1  0
 43 44  1  0
 43 47  1  0
 44 45  2  0
 44 48  1  0
 45 46  1  0
 45 49  1  0
 46 47  2  0
 46 50  1  0
 48 51  1  0
 48 52  1  0
 48 53  1  0
 23 47  1  0
M  END
>  <CHROM.1>  (96) 
-61.21881374,-2.92414870,13.81509078,-168.53354661,-62.78859739,-14.60626922
-6.05811051,-2.36166533,-0.75171827,-0.07503907,1.05483303

>  <Name>  (96) 
design_10

>  <RI>  (96) 
37398200.000000

>  <Rbt.Current_Directory>  (96) 
/pylon5/mc5pksp/smaltr/gateway_workdirs/PROCESS_93251df5-8da2-4fa9-b874-71853b29d1ad

>  <Rbt.Executable>  (96) 
rbdock ($Id: //depot/dev/client3/rdock/2013.1/src/exe/rbdock.cxx#4 $)

>  <Rbt.Library>  (96) 
libRbt.so (2013.1, Build901 2013/11/27)

>  <Rbt.Parameter_File>  (96) 
/home/smaltr/software/rDock_2013.1_src//data/scripts/dock.prm

>  <Rbt.Receptor>  (96) 
/pylon5/mc5pksp/smaltr/gateway_workdirs/PROCESS_93251df5-8da2-4fa9-b874-71853b29d1ad/output/SnD-Target-Sep02/cavity/pocket_docking.prm

>  <SCORE>  (96) 
-18.959500

>  <SCORE.INTER>  (96) 
-19.705700

>  <SCORE.INTER.CONST>  (96) 
1

>  <SCORE.INTER.POLAR>  (96) 
-2.008240

>  <SCORE.INTER.REPUL>  (96) 
0

>  <SCORE.INTER.ROT>  (96) 
5

>  <SCORE.INTER.VDW>  (96) 
-23.277600

>  <SCORE.INTER.norm>  (96) 
-0.821069

>  <SCORE.INTRA>  (96) 
0.746124

>  <SCORE.INTRA.DIHEDRAL>  (96) 
-0.309032

>  <SCORE.INTRA.DIHEDRAL.0>  (96) 
5.396800

>  <SCORE.INTRA.POLAR>  (96) 
0

>  <SCORE.INTRA.POLAR.0>  (96) 
0

>  <SCORE.INTRA.REPUL>  (96) 
0

>  <SCORE.INTRA.REPUL.0>  (96) 
0

>  <SCORE.INTRA.VDW>  (96) 
0.900640

>  <SCORE.INTRA.VDW.0>  (96) 
-1.932270

>  <SCORE.INTRA.norm>  (96) 
0.031089

>  <SCORE.RESTR>  (96) 
0

>  <SCORE.RESTR.CAVITY>  (96) 
0

>  <SCORE.RESTR.norm>  (96) 
0

>  <SCORE.SYSTEM>  (96) 
0

>  <SCORE.SYSTEM.CONST>  (96) 
0

>  <SCORE.SYSTEM.DIHEDRAL>  (96) 
0

>  <SCORE.SYSTEM.norm>  (96) 
0

>  <SCORE.heavy>  (96) 
24

>  <SCORE.norm>  (96) 
-0.789980

>  <SMILES>  (96) 
CCn1nnnc1-c1cccc(C(=O)NCc2cccc(C)c2)c1

>  <Cycle>  (96) 
228

>  <MolWeight>  (96) 
321.384000

>  <LogP>  (96) 
2.598420

>  <QED>  (96) 
0.783778

>  <SAS>  (96) 
1

$$$$
design_10
     RDKit          3D

 52 54  0  0  0  0  0  0  0  0999 V2000
   -9.2400   -6.6781   -5.6467 C   0  0  0  0  0  0  0  0  0  0  0  0
  -10.1048   -7.7630   -5.0642 C   0  0  0  0  0  0  0  0  0  0  0  0
  -10.6308   -7.3563   -3.7722 N   0  0  0  0  0  0  0  0  0  0  0  0
   -9.8244   -7.0657   -2.7098 N   0  0  0  0  0  0  0  0  0  0  0  0
  -10.6201   -6.7056   -1.7399 N   0  0  0  0  0  0  0  0  0  0  0  0
  -11.8607   -6.7621   -2.1537 N   0  0  0  0  0  0  0  0  0  0  0  0
  -11.8956   -7.1814   -3.4656 C   0  0  0  0  0  0  0  0  0  0  0  0
  -13.1555   -7.2885   -4.1713 C   0  0  0  0  0  0  0  0  0  0  0  0
  -13.2828   -7.5892   -5.4990 C   0  0  0  0  0  0  0  0  0  0  0  0
  -14.5493   -7.6094   -6.1094 C   0  0  0  0  0  0  0  0  0  0  0  0
  -15.6865   -7.3278   -5.3814 C   0  0  0  0  0  0  0  0  0  0  0  0
  -15.5955   -7.0228   -4.0448 C   0  0  0  0  0  0  0  0  0  0  0  0
  -16.7974   -6.7096   -3.2446 C   0  0  0  0  0  0  0  0  0  0  0  0
  -17.9344   -6.9735   -3.7168 O   0  0  0  0  0  0  0  0  0  0  0  0
  -16.7085   -6.1244   -1.9683 N   0  0  0  0  0  0  0  0  0  0  0  0
  -17.8981   -5.8284   -1.2131 C   0  0  0  0  0  0  0  0  0  0  0  0
  -17.5076   -4.9830   -0.0668 C   0  0  0  0  0  0  0  0  0  0  0  0
  -16.6531   -5.4354    0.9114 C   0  0  0  0  0  0  0  0  0  0  0  0
  -16.3324   -4.5918    1.9602 C   0  0  0  0  0  0  0  0  0  0  0  0
  -16.8369   -3.3125    2.0635 C   0  0  0  0  0  0  0  0  0  0  0  0
  -17.7024   -2.8709    1.0611 C   0  0  0  0  0  0  0  0  0  0  0  0
  -18.2639   -1.4914    1.1462 C   0  0  0  0  0  0  0  0  0  0  0  0
  -18.0268   -3.7102    0.0098 C   0  0  0  0  0  0  0  0  0  0  0  0
  -14.3524   -7.0094   -3.4743 C   0  0  0  0  0  0  0  0  0  0  0  0
   -8.2815   -7.1008   -5.9479 H   0  0  0  0  0  0  0  0  0  0  0  0
   -9.7350   -6.2456   -6.5162 H   0  0  0  0  0  0  0  0  0  0  0  0
   -9.0755   -5.9028   -4.8984 H   0  0  0  0  0  0  0  0  0  0  0  0
   -9.5016   -8.6612   -4.9319 H   0  0  0  0  0  0  0  0  0  0  0  0
  -10.9339   -7.9646   -5.7424 H   0  0  0  0  0  0  0  0  0  0  0  0
  -12.3948   -7.8152   -6.0894 H   0  0  0  0  0  0  0  0  0  0  0  0
  -14.6333   -7.8502   -7.1692 H   0  0  0  0  0  0  0  0  0  0  0  0
  -16.6614   -7.3473   -5.8685 H   0  0  0  0  0  0  0  0  0  0  0  0
  -15.8019   -5.9100   -1.5782 H   0  0  0  0  0  0  0  0  0  0  0  0
  -18.3659   -6.7491   -0.8644 H   0  0  0  0  0  0  0  0  0  0  0  0
  -18.6134   -5.2963   -1.8403 H   0  0  0  0  0  0  0  0  0  0  0  0
  -16.2358   -6.4411    0.8613 H   0  0  0  0  0  0  0  0  0  0  0  0
  -15.6551   -4.9522    2.7344 H   0  0  0  0  0  0  0  0  0  0  0  0
  -16.5687   -2.6674    2.9002 H   0  0  0  0  0  0  0  0  0  0  0  0
  -17.5816   -0.8549    1.7097 H   0  0  0  0  0  0  0  0  0  0  0  0
  -18.3920   -1.0880    0.1417 H   0  0  0  0  0  0  0  0  0  0  0  0
  -18.7033   -3.3584   -0.7691 H   0  0  0  0  0  0  0  0  0  0  0  0
  -14.2805   -6.7679   -2.4138 H   0  0  0  0  0  0  0  0  0  0  0  0
  -20.6744   -0.2330    3.3787 P   0  0  0  0  0  0  0  0  0  0  0  0
  -21.9451   -0.2326    2.6005 O   0  0  0  0  0  0  0  0  0  0  0  0
  -19.3466   -0.4335    2.5077 O   0  0  0  0  0  0  0  0  0  0  0  0
  -20.5609   -1.3760    4.4960 O   0  0  0  0  0  0  0  0  0  0  0  0
  -20.3639    1.1169    4.1824 O   0  0  0  0  0  0  0  0  0  0  0  0
  -19.2343   -1.5235    1.6525 C   0  0  0  0  0  0  0  0  0  0  0  0
  -20.0399   -1.4876    0.9044 H   0  0  0  0  0  0  0  0  0  0  0  0
  -19.3144   -2.4549    2.2325 H   0  0  0  0  0  0  0  0  0  0  0  0
  -19.8446   -1.1646    5.0991 H   0  0  0  0  0  0  0  0  0  0  0  0
  -21.0172    1.7827    3.9553 H   0  0  0  0  0  0  0  0  0  0  0  0
  1  2  1  0
  2  3  1  0
  3  4  1  0
  4  5  2  0
  5  6  1  0
  6  7  2  0
  7  8  1  0
  8  9  2  0
  9 10  1  0
 10 11  2  0
 11 12  1  0
 12 13  1  0
 13 14  2  0
 13 15  1  0
 15 16  1  0
 16 17  1  0
 17 18  2  0
 18 19  1  0
 19 20  2  0
 20 21  1  0
 21 22  1  0
 21 23  2  0
 12 24  2  0
  3  7  1  0
  8 24  1  0
 17 23  1  0
  1 25  1  0
  1 26  1  0
  1 27  1  0
  2 28  1  0
  2 29  1  0
  9 30  1  0
 10 31  1  0
 11 32  1  0
 15 33  1  0
 16 34  1  0
 16 35  1  0
 18 36  1  0
 19 37  1  0
 20 38  1  0
 22 39  1  0
 22 40  1  0
 23 41  1  0
 24 42  1  0
 43 44  2  0
 43 45  1  0
 43 46  1  0
 43 47  1  0
 45 48  1  0
 48 49  1  0
 48 50  1  0
 46 51  1  0
 47 52  1  0
 22 48  1  0
M  END
>  <CHROM.1>  (97) 
-61.21881374,-2.92414870,13.81509078,-168.53354661,-62.78859739,-14.60626922
-6.05811051,-2.36166533,-0.75171827,-0.07503907,1.05483303

>  <Name>  (97) 
design_10

>  <RI>  (97) 
37398200.000000

>  <Rbt.Current_Directory>  (97) 
/pylon5/mc5pksp/smaltr/gateway_workdirs/PROCESS_93251df5-8da2-4fa9-b874-71853b29d1ad

>  <Rbt.Executable>  (97) 
rbdock ($Id: //depot/dev/client3/rdock/2013.1/src/exe/rbdock.cxx#4 $)

>  <Rbt.Library>  (97) 
libRbt.so (2013.1, Build901 2013/11/27)

>  <Rbt.Parameter_File>  (97) 
/home/smaltr/software/rDock_2013.1_src//data/scripts/dock.prm

>  <Rbt.Receptor>  (97) 
/pylon5/mc5pksp/smaltr/gateway_workdirs/PROCESS_93251df5-8da2-4fa9-b874-71853b29d1ad/output/SnD-Target-Sep02/cavity/pocket_docking.prm

>  <SCORE>  (97) 
-18.959500

>  <SCORE.INTER>  (97) 
-19.705700

>  <SCORE.INTER.CONST>  (97) 
1

>  <SCORE.INTER.POLAR>  (97) 
-2.008240

>  <SCORE.INTER.REPUL>  (97) 
0

>  <SCORE.INTER.ROT>  (97) 
5

>  <SCORE.INTER.VDW>  (97) 
-23.277600

>  <SCORE.INTER.norm>  (97) 
-0.821069

>  <SCORE.INTRA>  (97) 
0.746124

>  <SCORE.INTRA.DIHEDRAL>  (97) 
-0.309032

>  <SCORE.INTRA.DIHEDRAL.0>  (97) 
5.396800

>  <SCORE.INTRA.POLAR>  (97) 
0

>  <SCORE.INTRA.POLAR.0>  (97) 
0

>  <SCORE.INTRA.REPUL>  (97) 
0

>  <SCORE.INTRA.REPUL.0>  (97) 
0

>  <SCORE.INTRA.VDW>  (97) 
0.900640

>  <SCORE.INTRA.VDW.0>  (97) 
-1.932270

>  <SCORE.INTRA.norm>  (97) 
0.031089

>  <SCORE.RESTR>  (97) 
0

>  <SCORE.RESTR.CAVITY>  (97) 
0

>  <SCORE.RESTR.norm>  (97) 
0

>  <SCORE.SYSTEM>  (97) 
0

>  <SCORE.SYSTEM.CONST>  (97) 
0

>  <SCORE.SYSTEM.DIHEDRAL>  (97) 
0

>  <SCORE.SYSTEM.norm>  (97) 
0

>  <SCORE.heavy>  (97) 
24

>  <SCORE.norm>  (97) 
-0.789980

>  <SMILES>  (97) 
CCn1nnnc1-c1cccc(C(=O)NCc2cccc(C)c2)c1

>  <Cycle>  (97) 
228

>  <MolWeight>  (97) 
321.384000

>  <LogP>  (97) 
2.598420

>  <QED>  (97) 
0.783778

>  <SAS>  (97) 
1.3638764000642567

$$$$
design_10
     RDKit          3D

 52 54  0  0  0  0  0  0  0  0999 V2000
   -9.2400   -6.6781   -5.6467 C   0  0  0  0  0  0  0  0  0  0  0  0
  -10.1048   -7.7630   -5.0642 C   0  0  0  0  0  0  0  0  0  0  0  0
  -10.6308   -7.3563   -3.7722 N   0  0  0  0  0  0  0  0  0  0  0  0
   -9.8244   -7.0657   -2.7098 N   0  0  0  0  0  0  0  0  0  0  0  0
  -10.6201   -6.7056   -1.7399 N   0  0  0  0  0  0  0  0  0  0  0  0
  -11.8607   -6.7621   -2.1537 N   0  0  0  0  0  0  0  0  0  0  0  0
  -11.8956   -7.1814   -3.4656 C   0  0  0  0  0  0  0  0  0  0  0  0
  -13.1555   -7.2885   -4.1713 C   0  0  0  0  0  0  0  0  0  0  0  0
  -13.2828   -7.5892   -5.4990 C   0  0  0  0  0  0  0  0  0  0  0  0
  -14.5493   -7.6094   -6.1094 C   0  0  0  0  0  0  0  0  0  0  0  0
  -15.6865   -7.3278   -5.3814 C   0  0  0  0  0  0  0  0  0  0  0  0
  -15.5955   -7.0228   -4.0448 C   0  0  0  0  0  0  0  0  0  0  0  0
  -16.7974   -6.7096   -3.2446 C   0  0  0  0  0  0  0  0  0  0  0  0
  -17.9344   -6.9735   -3.7168 O   0  0  0  0  0  0  0  0  0  0  0  0
  -16.7085   -6.1244   -1.9683 N   0  0  0  0  0  0  0  0  0  0  0  0
  -17.8981   -5.8284   -1.2131 C   0  0  0  0  0  0  0  0  0  0  0  0
  -17.5076   -4.9830   -0.0668 C   0  0  0  0  0  0  0  0  0  0  0  0
  -16.6531   -5.4354    0.9114 C   0  0  0  0  0  0  0  0  0  0  0  0
  -16.3324   -4.5918    1.9602 C   0  0  0  0  0  0  0  0  0  0  0  0
  -16.8369   -3.3125    2.0635 C   0  0  0  0  0  0  0  0  0  0  0  0
  -17.7024   -2.8709    1.0611 C   0  0  0  0  0  0  0  0  0  0  0  0
  -18.2639   -1.4914    1.1462 C   0  0  0  0  0  0  0  0  0  0  0  0
  -18.0268   -3.7102    0.0098 C   0  0  0  0  0  0  0  0  0  0  0  0
  -14.3524   -7.0094   -3.4743 C   0  0  0  0  0  0  0  0  0  0  0  0
   -9.7350   -6.2456   -6.5162 H   0  0  0  0  0  0  0  0  0  0  0  0
   -9.0755   -5.9028   -4.8984 H   0  0  0  0  0  0  0  0  0  0  0  0
   -9.5016   -8.6612   -4.9319 H   0  0  0  0  0  0  0  0  0  0  0  0
  -10.9339   -7.9646   -5.7424 H   0  0  0  0  0  0  0  0  0  0  0  0
  -12.3948   -7.8152   -6.0894 H   0  0  0  0  0  0  0  0  0  0  0  0
  -14.6333   -7.8502   -7.1692 H   0  0  0  0  0  0  0  0  0  0  0  0
  -16.6614   -7.3473   -5.8685 H   0  0  0  0  0  0  0  0  0  0  0  0
  -15.8019   -5.9100   -1.5782 H   0  0  0  0  0  0  0  0  0  0  0  0
  -18.3659   -6.7491   -0.8644 H   0  0  0  0  0  0  0  0  0  0  0  0
  -18.6134   -5.2963   -1.8403 H   0  0  0  0  0  0  0  0  0  0  0  0
  -16.2358   -6.4411    0.8613 H   0  0  0  0  0  0  0  0  0  0  0  0
  -15.6551   -4.9522    2.7344 H   0  0  0  0  0  0  0  0  0  0  0  0
  -16.5687   -2.6674    2.9002 H   0  0  0  0  0  0  0  0  0  0  0  0
  -19.2299   -1.5234    1.6502 H   0  0  0  0  0  0  0  0  0  0  0  0
  -17.5816   -0.8549    1.7097 H   0  0  0  0  0  0  0  0  0  0  0  0
  -18.3920   -1.0880    0.1417 H   0  0  0  0  0  0  0  0  0  0  0  0
  -18.7033   -3.3584   -0.7691 H   0  0  0  0  0  0  0  0  0  0  0  0
  -14.2805   -6.7679   -2.4138 H   0  0  0  0  0  0  0  0  0  0  0  0
   -6.1421   -8.2055   -4.9773 P   0  0  0  0  0  0  0  0  0  0  0  0
   -6.0747   -9.3527   -5.9258 O   0  0  0  0  0  0  0  0  0  0  0  0
   -7.5887   -7.5381   -4.8229 O   0  0  0  0  0  0  0  0  0  0  0  0
   -5.1981   -6.9634   -5.3432 O   0  0  0  0  0  0  0  0  0  0  0  0
   -5.7518   -8.5465   -3.4621 O   0  0  0  0  0  0  0  0  0  0  0  0
   -8.2771   -7.1028   -5.9493 C   0  0  0  0  0  0  0  0  0  0  0  0
   -8.4474   -7.9525   -6.6266 H   0  0  0  0  0  0  0  0  0  0  0  0
   -7.6844   -6.3344   -6.4675 H   0  0  0  0  0  0  0  0  0  0  0  0
   -5.1159   -6.3874   -4.5796 H   0  0  0  0  0  0  0  0  0  0  0  0
   -5.6235   -9.4935   -3.3695 H   0  0  0  0  0  0  0  0  0  0  0  0
  1  2  1  0
  2  3  1  0
  3  4  1  0
  4  5  2  0
  5  6  1  0
  6  7  2  0
  7  8  1  0
  8  9  2  0
  9 10  1  0
 10 11  2  0
 11 12  1  0
 12 13  1  0
 13 14  2  0
 13 15  1  0
 15 16  1  0
 16 17  1  0
 17 18  2  0
 18 19  1  0
 19 20  2  0
 20 21  1  0
 21 22  1  0
 21 23  2  0
 12 24  2  0
  3  7  1  0
  8 24  1  0
 17 23  1  0
  1 25  1  0
  1 26  1  0
  2 27  1  0
  2 28  1  0
  9 29  1  0
 10 30  1  0
 11 31  1  0
 15 32  1  0
 16 33  1  0
 16 34  1  0
 18 35  1  0
 19 36  1  0
 20 37  1  0
 22 38  1  0
 22 39  1  0
 22 40  1  0
 23 41  1  0
 24 42  1  0
 43 44  2  0
 43 45  1  0
 43 46  1  0
 43 47  1  0
 45 48  1  0
 48 49  1  0
 48 50  1  0
 46 51  1  0
 47 52  1  0
  1 48  1  0
M  END
>  <CHROM.1>  (98) 
-61.21881374,-2.92414870,13.81509078,-168.53354661,-62.78859739,-14.60626922
-6.05811051,-2.36166533,-0.75171827,-0.07503907,1.05483303

>  <Name>  (98) 
design_10

>  <RI>  (98) 
37398200.000000

>  <Rbt.Current_Directory>  (98) 
/pylon5/mc5pksp/smaltr/gateway_workdirs/PROCESS_93251df5-8da2-4fa9-b874-71853b29d1ad

>  <Rbt.Executable>  (98) 
rbdock ($Id: //depot/dev/client3/rdock/2013.1/src/exe/rbdock.cxx#4 $)

>  <Rbt.Library>  (98) 
libRbt.so (2013.1, Build901 2013/11/27)

>  <Rbt.Parameter_File>  (98) 
/home/smaltr/software/rDock_2013.1_src//data/scripts/dock.prm

>  <Rbt.Receptor>  (98) 
/pylon5/mc5pksp/smaltr/gateway_workdirs/PROCESS_93251df5-8da2-4fa9-b874-71853b29d1ad/output/SnD-Target-Sep02/cavity/pocket_docking.prm

>  <SCORE>  (98) 
-18.959500

>  <SCORE.INTER>  (98) 
-19.705700

>  <SCORE.INTER.CONST>  (98) 
1

>  <SCORE.INTER.POLAR>  (98) 
-2.008240

>  <SCORE.INTER.REPUL>  (98) 
0

>  <SCORE.INTER.ROT>  (98) 
5

>  <SCORE.INTER.VDW>  (98) 
-23.277600

>  <SCORE.INTER.norm>  (98) 
-0.821069

>  <SCORE.INTRA>  (98) 
0.746124

>  <SCORE.INTRA.DIHEDRAL>  (98) 
-0.309032

>  <SCORE.INTRA.DIHEDRAL.0>  (98) 
5.396800

>  <SCORE.INTRA.POLAR>  (98) 
0

>  <SCORE.INTRA.POLAR.0>  (98) 
0

>  <SCORE.INTRA.REPUL>  (98) 
0

>  <SCORE.INTRA.REPUL.0>  (98) 
0

>  <SCORE.INTRA.VDW>  (98) 
0.900640

>  <SCORE.INTRA.VDW.0>  (98) 
-1.932270

>  <SCORE.INTRA.norm>  (98) 
0.031089

>  <SCORE.RESTR>  (98) 
0

>  <SCORE.RESTR.CAVITY>  (98) 
0

>  <SCORE.RESTR.norm>  (98) 
0

>  <SCORE.SYSTEM>  (98) 
0

>  <SCORE.SYSTEM.CONST>  (98) 
0

>  <SCORE.SYSTEM.DIHEDRAL>  (98) 
0

>  <SCORE.SYSTEM.norm>  (98) 
0

>  <SCORE.heavy>  (98) 
24

>  <SCORE.norm>  (98) 
-0.789980

>  <SMILES>  (98) 
CCn1nnnc1-c1cccc(C(=O)NCc2cccc(C)c2)c1

>  <Cycle>  (98) 
228

>  <MolWeight>  (98) 
321.384000

>  <LogP>  (98) 
2.598420

>  <QED>  (98) 
0.783778

>  <SAS>  (98) 
1.3638764000642567

$$$$
design_2
     RDKit          3D

 53 55  0  0  0  0  0  0  0  0999 V2000
  -17.2584    1.2936    0.9578 C   0  0  0  0  0  0  0  0  0  0  0  0
  -17.3021   -0.1742    1.0602 C   0  0  0  0  0  0  0  0  0  0  0  0
  -18.4853   -0.8019    1.3398 C   0  0  0  0  0  0  0  0  0  0  0  0
  -18.4810   -2.2070    1.4286 C   0  0  0  0  0  0  0  0  0  0  0  0
  -17.3474   -2.9617    1.2473 C   0  0  0  0  0  0  0  0  0  0  0  0
  -17.3581   -4.3631    1.3389 N   0  0  0  0  0  0  0  0  0  0  0  0
  -18.4355   -5.1617    1.7665 C   0  0  0  0  0  0  0  0  0  0  0  0
  -19.5126   -4.6639    2.1126 O   0  0  0  0  0  0  0  0  0  0  0  0
  -18.2169   -6.6536    1.7834 C   0  0  0  0  0  0  0  0  0  0  0  0
  -18.1475   -7.1444    0.3754 C   0  0  0  0  0  0  0  0  0  0  0  0
  -16.7397   -7.2049   -0.1003 C   0  0  0  0  0  0  0  0  0  0  0  0
  -16.6334   -7.2078   -1.5477 N   0  0  0  0  0  0  0  0  0  0  0  0
  -15.4904   -6.7912   -2.2592 C   0  0  0  0  0  0  0  0  0  0  0  0
  -14.4909   -6.3906   -1.6197 O   0  0  0  0  0  0  0  0  0  0  0  0
  -15.4769   -6.8287   -3.7369 C   0  0  0  0  0  0  0  0  0  0  0  0
  -14.3901   -7.3357   -4.4184 C   0  0  0  0  0  0  0  0  0  0  0  0
  -14.3888   -7.3654   -5.7973 C   0  0  0  0  0  0  0  0  0  0  0  0
  -15.4544   -6.8983   -6.5420 C   0  0  0  0  0  0  0  0  0  0  0  0
  -16.5419   -6.3910   -5.8622 C   0  0  0  0  0  0  0  0  0  0  0  0
  -16.5491   -6.3585   -4.4797 C   0  0  0  0  0  0  0  0  0  0  0  0
  -17.9159   -5.7208   -3.6162 Cl  0  0  0  0  0  0  0  0  0  0  0  0
  -16.1574   -2.2922    0.9637 C   0  0  0  0  0  0  0  0  0  0  0  0
  -15.0034   -3.0012    0.7754 O   0  0  0  0  0  0  0  0  0  0  0  0
  -16.1664   -0.9050    0.8771 C   0  0  0  0  0  0  0  0  0  0  0  0
  -16.3014    1.5994    0.5351 H   0  0  0  0  0  0  0  0  0  0  0  0
  -18.0666    1.6376    0.3123 H   0  0  0  0  0  0  0  0  0  0  0  0
  -17.3734    1.7312    1.9495 H   0  0  0  0  0  0  0  0  0  0  0  0
  -19.4024   -0.2320    1.4891 H   0  0  0  0  0  0  0  0  0  0  0  0
  -19.4177   -2.7182    1.6508 H   0  0  0  0  0  0  0  0  0  0  0  0
  -19.0388   -7.1427    2.3063 H   0  0  0  0  0  0  0  0  0  0  0  0
  -17.2839   -6.8823    2.2985 H   0  0  0  0  0  0  0  0  0  0  0  0
  -18.6987   -6.4518   -0.2606 H   0  0  0  0  0  0  0  0  0  0  0  0
  -18.5852   -8.1413    0.3229 H   0  0  0  0  0  0  0  0  0  0  0  0
  -16.3120   -8.1400    0.2612 H   0  0  0  0  0  0  0  0  0  0  0  0
  -16.2032   -6.3387    0.2870 H   0  0  0  0  0  0  0  0  0  0  0  0
  -17.4298   -7.5291   -2.0793 H   0  0  0  0  0  0  0  0  0  0  0  0
  -13.5301   -7.7139   -3.8657 H   0  0  0  0  0  0  0  0  0  0  0  0
  -13.5196   -7.7702   -6.3157 H   0  0  0  0  0  0  0  0  0  0  0  0
  -15.4363   -6.9296   -7.6314 H   0  0  0  0  0  0  0  0  0  0  0  0
  -17.4004   -6.0136   -6.4177 H   0  0  0  0  0  0  0  0  0  0  0  0
  -14.7455   -2.9544   -0.1481 H   0  0  0  0  0  0  0  0  0  0  0  0
  -15.2346   -0.3846    0.6555 H   0  0  0  0  0  0  0  0  0  0  0  0
  -14.1129   -4.9844    1.0253 N   0  0  0  0  0  0  0  0  0  0  0  0
  -14.2696   -6.1166    0.3664 C   0  0  0  0  0  0  0  0  0  0  0  0
  -13.1645   -6.7438    0.0188 N   0  0  0  0  0  0  0  0  0  0  0  0
  -15.4018   -6.6951    0.0151 N   0  0  0  0  0  0  0  0  0  0  0  0
  -16.5160   -6.0574    0.3684 C   0  0  0  0  0  0  0  0  0  0  0  0
  -16.4830   -4.8603    1.0634 C   0  0  0  0  0  0  0  0  0  0  0  0
  -15.2325   -4.3541    1.3756 C   0  0  0  0  0  0  0  0  0  0  0  0
  -17.4714   -6.4906    0.1029 H   0  0  0  0  0  0  0  0  0  0  0  0
  -15.1575   -3.4210    1.9181 H   0  0  0  0  0  0  0  0  0  0  0  0
  -13.2706   -7.5970   -0.4780 H   0  0  0  0  0  0  0  0  0  0  0  0
  -12.3069   -6.3176    0.2782 H   0  0  0  0  0  0  0  0  0  0  0  0
  1  2  1  0
  2  3  2  0
  3  4  1  0
  4  5  2  0
  5  6  1  0
  6  7  1  0
  7  8  2  0
  7  9  1  0
  9 10  1  0
 10 11  1  0
 11 12  1  0
 12 13  1  0
 13 14  2  0
 13 15  1  0
 15 16  2  0
 16 17  1  0
 17 18  2  0
 18 19  1  0
 19 20  2  0
 20 21  1  0
  5 22  1  0
 22 23  1  0
 22 24  2  0
  2 24  1  0
 15 20  1  0
  1 25  1  0
  1 26  1  0
  1 27  1  0
  3 28  1  0
  4 29  1  0
  9 30  1  0
  9 31  1  0
 10 32  1  0
 10 33  1  0
 11 34  1  0
 11 35  1  0
 12 36  1  0
 16 37  1  0
 17 38  1  0
 18 39  1  0
 19 40  1  0
 23 41  1  0
 24 42  1  0
 43 44  2  0
 43 49  1  0
 44 45  1  0
 45 52  1  0
 45 53  1  0
 44 46  1  0
 46 47  2  0
 47 50  1  0
 47 48  1  0
 48 49  2  0
 49 51  1  0
  6 48  1  0
M  END
>  <CHROM.1>  (99) 
-7.85494018,-70.51786892,93.79447857,-159.45420467,156.49061714,-134.70582506
-2.59576437,-16.82262164,-4.79801655,-1.09588681,-2.13605727,-1.13911128
-2.79822442

>  <Name>  (99) 
design_2

>  <RI>  (99) 
18134700.000000

>  <Rbt.Current_Directory>  (99) 
/pylon5/mc5pksp/smaltr/gateway_workdirs/PROCESS_93251df5-8da2-4fa9-b874-71853b29d1ad

>  <Rbt.Executable>  (99) 
rbdock ($Id: //depot/dev/client3/rdock/2013.1/src/exe/rbdock.cxx#4 $)

>  <Rbt.Library>  (99) 
libRbt.so (2013.1, Build901 2013/11/27)

>  <Rbt.Parameter_File>  (99) 
/home/smaltr/software/rDock_2013.1_src//data/scripts/dock.prm

>  <Rbt.Receptor>  (99) 
/pylon5/mc5pksp/smaltr/gateway_workdirs/PROCESS_93251df5-8da2-4fa9-b874-71853b29d1ad/output/SnD-Target-Sep02/cavity/pocket_docking.prm

>  <SCORE>  (99) 
-21.179000

>  <SCORE.INTER>  (99) 
-19.124800

>  <SCORE.INTER.CONST>  (99) 
1

>  <SCORE.INTER.POLAR>  (99) 
-1.342290

>  <SCORE.INTER.REPUL>  (99) 
0.027236

>  <SCORE.INTER.ROT>  (99) 
6

>  <SCORE.INTER.VDW>  (99) 
-26.097200

>  <SCORE.INTER.norm>  (99) 
-0.796868

>  <SCORE.INTRA>  (99) 
-2.054130

>  <SCORE.INTRA.DIHEDRAL>  (99) 
-1.438940

>  <SCORE.INTRA.DIHEDRAL.0>  (99) 
15.237700

>  <SCORE.INTRA.POLAR>  (99) 
0

>  <SCORE.INTRA.POLAR.0>  (99) 
0

>  <SCORE.INTRA.REPUL>  (99) 
0

>  <SCORE.INTRA.REPUL.0>  (99) 
0

>  <SCORE.INTRA.VDW>  (99) 
-1.334660

>  <SCORE.INTRA.VDW.0>  (99) 
0.589361

>  <SCORE.INTRA.norm>  (99) 
-0.085589

>  <SCORE.RESTR>  (99) 
0

>  <SCORE.RESTR.CAVITY>  (99) 
0

>  <SCORE.RESTR.norm>  (99) 
0

>  <SCORE.SYSTEM>  (99) 
0

>  <SCORE.SYSTEM.CONST>  (99) 
0

>  <SCORE.SYSTEM.DIHEDRAL>  (99) 
0

>  <SCORE.SYSTEM.norm>  (99) 
0

>  <SCORE.heavy>  (99) 
24

>  <SCORE.norm>  (99) 
-0.882457

>  <SMILES>  (99) 
Cc1ccc(NC(=O)CCCNC(=O)c2ccccc2Cl)c(O)c1

>  <Cycle>  (99) 
228

>  <MolWeight>  (99) 
346.814000

>  <LogP>  (99) 
3.502720

>  <QED>  (99) 
0.552985

>  <SAS>  (99) 
1

$$$$
design_2
     RDKit          3D

 54 56  0  0  0  0  0  0  0  0999 V2000
  -17.2584    1.2936    0.9578 C   0  0  0  0  0  0  0  0  0  0  0  0
  -17.3021   -0.1742    1.0602 C   0  0  0  0  0  0  0  0  0  0  0  0
  -18.4853   -0.8019    1.3398 C   0  0  0  0  0  0  0  0  0  0  0  0
  -18.4810   -2.2070    1.4286 C   0  0  0  0  0  0  0  0  0  0  0  0
  -17.3474   -2.9617    1.2473 C   0  0  0  0  0  0  0  0  0  0  0  0
  -17.3581   -4.3631    1.3389 N   0  0  0  0  0  0  0  0  0  0  0  0
  -18.4355   -5.1617    1.7665 C   0  0  0  0  0  0  0  0  0  0  0  0
  -19.5126   -4.6639    2.1126 O   0  0  0  0  0  0  0  0  0  0  0  0
  -18.2169   -6.6536    1.7834 C   0  0  0  0  0  0  0  0  0  0  0  0
  -18.1475   -7.1444    0.3754 C   0  0  0  0  0  0  0  0  0  0  0  0
  -16.7397   -7.2049   -0.1003 C   0  0  0  0  0  0  0  0  0  0  0  0
  -16.6334   -7.2078   -1.5477 N   0  0  0  0  0  0  0  0  0  0  0  0
  -15.4904   -6.7912   -2.2592 C   0  0  0  0  0  0  0  0  0  0  0  0
  -14.4909   -6.3906   -1.6197 O   0  0  0  0  0  0  0  0  0  0  0  0
  -15.4769   -6.8287   -3.7369 C   0  0  0  0  0  0  0  0  0  0  0  0
  -14.3901   -7.3357   -4.4184 C   0  0  0  0  0  0  0  0  0  0  0  0
  -14.3888   -7.3654   -5.7973 C   0  0  0  0  0  0  0  0  0  0  0  0
  -15.4544   -6.8983   -6.5420 C   0  0  0  0  0  0  0  0  0  0  0  0
  -16.5419   -6.3910   -5.8622 C   0  0  0  0  0  0  0  0  0  0  0  0
  -16.5491   -6.3585   -4.4797 C   0  0  0  0  0  0  0  0  0  0  0  0
  -17.9159   -5.7208   -3.6162 Cl  0  0  0  0  0  0  0  0  0  0  0  0
  -16.1574   -2.2922    0.9637 C   0  0  0  0  0  0  0  0  0  0  0  0
  -15.0034   -3.0012    0.7754 O   0  0  0  0  0  0  0  0  0  0  0  0
  -16.1664   -0.9050    0.8771 C   0  0  0  0  0  0  0  0  0  0  0  0
  -16.3014    1.5994    0.5351 H   0  0  0  0  0  0  0  0  0  0  0  0
  -18.0666    1.6376    0.3123 H   0  0  0  0  0  0  0  0  0  0  0  0
  -17.3734    1.7312    1.9495 H   0  0  0  0  0  0  0  0  0  0  0  0
  -19.4024   -0.2320    1.4891 H   0  0  0  0  0  0  0  0  0  0  0  0
  -19.4177   -2.7182    1.6508 H   0  0  0  0  0  0  0  0  0  0  0  0
  -16.5111   -4.8443    1.0723 H   0  0  0  0  0  0  0  0  0  0  0  0
  -19.0388   -7.1427    2.3063 H   0  0  0  0  0  0  0  0  0  0  0  0
  -17.2839   -6.8823    2.2985 H   0  0  0  0  0  0  0  0  0  0  0  0
  -18.6987   -6.4518   -0.2606 H   0  0  0  0  0  0  0  0  0  0  0  0
  -18.5852   -8.1413    0.3229 H   0  0  0  0  0  0  0  0  0  0  0  0
  -16.3120   -8.1400    0.2612 H   0  0  0  0  0  0  0  0  0  0  0  0
  -16.2032   -6.3387    0.2870 H   0  0  0  0  0  0  0  0  0  0  0  0
  -17.4298   -7.5291   -2.0793 H   0  0  0  0  0  0  0  0  0  0  0  0
  -13.5301   -7.7139   -3.8657 H   0  0  0  0  0  0  0  0  0  0  0  0
  -13.5196   -7.7702   -6.3157 H   0  0  0  0  0  0  0  0  0  0  0  0
  -17.4004   -6.0136   -6.4177 H   0  0  0  0  0  0  0  0  0  0  0  0
  -14.7455   -2.9544   -0.1481 H   0  0  0  0  0  0  0  0  0  0  0  0
  -15.2346   -0.3846    0.6555 H   0  0  0  0  0  0  0  0  0  0  0  0
  -15.6123   -8.1799   -9.4956 N   0  0  0  0  0  0  0  0  0  0  0  0
  -15.6276   -8.1039   -8.1632 C   0  0  0  0  0  0  0  0  0  0  0  0
  -15.8334   -9.1974   -7.4054 N   0  0  0  0  0  0  0  0  0  0  0  0
  -16.0463  -10.5058   -8.0519 C   0  0  0  0  0  0  0  0  0  0  0  0
  -16.0278  -10.5714   -9.3955 C   0  0  0  0  0  0  0  0  0  0  0  0
  -15.7961   -9.3252  -10.1547 C   0  0  0  0  0  0  0  0  0  0  0  0
  -15.7806   -9.3878  -11.3725 O   0  0  0  0  0  0  0  0  0  0  0  0
  -15.4371   -6.9283   -7.5853 N   0  0  0  0  0  0  0  0  0  0  0  0
  -15.4645   -7.4006  -10.0905 H   0  0  0  0  0  0  0  0  0  0  0  0
  -16.2121  -11.3894   -7.4618 H   0  0  0  0  0  0  0  0  0  0  0  0
  -16.1743  -11.4841   -9.9372 H   0  0  0  0  0  0  0  0  0  0  0  0
  -15.2815   -6.0967   -8.1144 H   0  0  0  0  0  0  0  0  0  0  0  0
  1  2  1  0
  2  3  2  0
  3  4  1  0
  4  5  2  0
  5  6  1  0
  6  7  1  0
  7  8  2  0
  7  9  1  0
  9 10  1  0
 10 11  1  0
 11 12  1  0
 12 13  1  0
 13 14  2  0
 13 15  1  0
 15 16  2  0
 16 17  1  0
 17 18  2  0
 18 19  1  0
 19 20  2  0
 20 21  1  0
  5 22  1  0
 22 23  1  0
 22 24  2  0
  2 24  1  0
 15 20  1  0
  1 25  1  0
  1 26  1  0
  1 27  1  0
  3 28  1  0
  4 29  1  0
  6 30  1  0
  9 31  1  0
  9 32  1  0
 10 33  1  0
 10 34  1  0
 11 35  1  0
 11 36  1  0
 12 37  1  0
 16 38  1  0
 17 39  1  0
 19 40  1  0
 23 41  1  0
 24 42  1  0
 43 44  1  0
 43 48  1  0
 43 51  1  0
 44 45  2  0
 44 50  1  0
 45 46  1  0
 46 47  2  0
 46 52  1  0
 47 48  1  0
 47 53  1  0
 48 49  2  0
 50 54  1  0
 18 50  1  0
M  END
>  <CHROM.1>  (100) 
-7.85494018,-70.51786892,93.79447857,-159.45420467,156.49061714,-134.70582506
-2.59576437,-16.82262164,-4.79801655,-1.09588681,-2.13605727,-1.13911128
-2.79822442

>  <Name>  (100) 
design_2

>  <RI>  (100) 
18134700.000000

>  <Rbt.Current_Directory>  (100) 
/pylon5/mc5pksp/smaltr/gateway_workdirs/PROCESS_93251df5-8da2-4fa9-b874-71853b29d1ad

>  <Rbt.Executable>  (100) 
rbdock ($Id: //depot/dev/client3/rdock/2013.1/src/exe/rbdock.cxx#4 $)

>  <Rbt.Library>  (100) 
libRbt.so (2013.1, Build901 2013/11/27)

>  <Rbt.Parameter_File>  (100) 
/home/smaltr/software/rDock_2013.1_src//data/scripts/dock.prm

>  <Rbt.Receptor>  (100) 
/pylon5/mc5pksp/smaltr/gateway_workdirs/PROCESS_93251df5-8da2-4fa9-b874-71853b29d1ad/output/SnD-Target-Sep02/cavity/pocket_docking.prm

>  <SCORE>  (100) 
-21.179000

>  <SCORE.INTER>  (100) 
-19.124800

>  <SCORE.INTER.CONST>  (100) 
1

>  <SCORE.INTER.POLAR>  (100) 
-1.342290

>  <SCORE.INTER.REPUL>  (100) 
0.027236

>  <SCORE.INTER.ROT>  (100) 
6

>  <SCORE.INTER.VDW>  (100) 
-26.097200

>  <SCORE.INTER.norm>  (100) 
-0.796868

>  <SCORE.INTRA>  (100) 
-2.054130

>  <SCORE.INTRA.DIHEDRAL>  (100) 
-1.438940

>  <SCORE.INTRA.DIHEDRAL.0>  (100) 
15.237700

>  <SCORE.INTRA.POLAR>  (100) 
0

>  <SCORE.INTRA.POLAR.0>  (100) 
0

>  <SCORE.INTRA.REPUL>  (100) 
0

>  <SCORE.INTRA.REPUL.0>  (100) 
0

>  <SCORE.INTRA.VDW>  (100) 
-1.334660

>  <SCORE.INTRA.VDW.0>  (100) 
0.589361

>  <SCORE.INTRA.norm>  (100) 
-0.085589

>  <SCORE.RESTR>  (100) 
0

>  <SCORE.RESTR.CAVITY>  (100) 
0

>  <SCORE.RESTR.norm>  (100) 
0

>  <SCORE.SYSTEM>  (100) 
0

>  <SCORE.SYSTEM.CONST>  (100) 
0

>  <SCORE.SYSTEM.DIHEDRAL>  (100) 
0

>  <SCORE.SYSTEM.norm>  (100) 
0

>  <SCORE.heavy>  (100) 
24

>  <SCORE.norm>  (100) 
-0.882457

>  <SMILES>  (100) 
Cc1ccc(NC(=O)CCCNC(=O)c2ccccc2Cl)c(O)c1

>  <Cycle>  (100) 
228

>  <MolWeight>  (100) 
346.814000

>  <LogP>  (100) 
3.502720

>  <QED>  (100) 
0.552985

>  <SAS>  (100) 
1.8040384432889596

$$$$
design_2
     RDKit          3D

 54 56  0  0  0  0  0  0  0  0999 V2000
  -17.2584    1.2936    0.9578 C   0  0  0  0  0  0  0  0  0  0  0  0
  -17.3021   -0.1742    1.0602 C   0  0  0  0  0  0  0  0  0  0  0  0
  -18.4853   -0.8019    1.3398 C   0  0  0  0  0  0  0  0  0  0  0  0
  -18.4810   -2.2070    1.4286 C   0  0  0  0  0  0  0  0  0  0  0  0
  -17.3474   -2.9617    1.2473 C   0  0  0  0  0  0  0  0  0  0  0  0
  -17.3581   -4.3631    1.3389 N   0  0  0  0  0  0  0  0  0  0  0  0
  -18.4355   -5.1617    1.7665 C   0  0  0  0  0  0  0  0  0  0  0  0
  -19.5126   -4.6639    2.1126 O   0  0  0  0  0  0  0  0  0  0  0  0
  -18.2169   -6.6536    1.7834 C   0  0  0  0  0  0  0  0  0  0  0  0
  -18.1475   -7.1444    0.3754 C   0  0  0  0  0  0  0  0  0  0  0  0
  -16.7397   -7.2049   -0.1003 C   0  0  0  0  0  0  0  0  0  0  0  0
  -16.6334   -7.2078   -1.5477 N   0  0  0  0  0  0  0  0  0  0  0  0
  -15.4904   -6.7912   -2.2592 C   0  0  0  0  0  0  0  0  0  0  0  0
  -14.4909   -6.3906   -1.6197 O   0  0  0  0  0  0  0  0  0  0  0  0
  -15.4769   -6.8287   -3.7369 C   0  0  0  0  0  0  0  0  0  0  0  0
  -14.3901   -7.3357   -4.4184 C   0  0  0  0  0  0  0  0  0  0  0  0
  -14.3888   -7.3654   -5.7973 C   0  0  0  0  0  0  0  0  0  0  0  0
  -15.4544   -6.8983   -6.5420 C   0  0  0  0  0  0  0  0  0  0  0  0
  -16.5419   -6.3910   -5.8622 C   0  0  0  0  0  0  0  0  0  0  0  0
  -16.5491   -6.3585   -4.4797 C   0  0  0  0  0  0  0  0  0  0  0  0
  -17.9159   -5.7208   -3.6162 Cl  0  0  0  0  0  0  0  0  0  0  0  0
  -16.1574   -2.2922    0.9637 C   0  0  0  0  0  0  0  0  0  0  0  0
  -15.0034   -3.0012    0.7754 O   0  0  0  0  0  0  0  0  0  0  0  0
  -16.1664   -0.9050    0.8771 C   0  0  0  0  0  0  0  0  0  0  0  0
  -16.3014    1.5994    0.5351 H   0  0  0  0  0  0  0  0  0  0  0  0
  -18.0666    1.6376    0.3123 H   0  0  0  0  0  0  0  0  0  0  0  0
  -17.3734    1.7312    1.9495 H   0  0  0  0  0  0  0  0  0  0  0  0
  -19.4024   -0.2320    1.4891 H   0  0  0  0  0  0  0  0  0  0  0  0
  -19.4177   -2.7182    1.6508 H   0  0  0  0  0  0  0  0  0  0  0  0
  -16.5111   -4.8443    1.0723 H   0  0  0  0  0  0  0  0  0  0  0  0
  -19.0388   -7.1427    2.3063 H   0  0  0  0  0  0  0  0  0  0  0  0
  -17.2839   -6.8823    2.2985 H   0  0  0  0  0  0  0  0  0  0  0  0
  -18.6987   -6.4518   -0.2606 H   0  0  0  0  0  0  0  0  0  0  0  0
  -18.5852   -8.1413    0.3229 H   0  0  0  0  0  0  0  0  0  0  0  0
  -16.3120   -8.1400    0.2612 H   0  0  0  0  0  0  0  0  0  0  0  0
  -16.2032   -6.3387    0.2870 H   0  0  0  0  0  0  0  0  0  0  0  0
  -17.4298   -7.5291   -2.0793 H   0  0  0  0  0  0  0  0  0  0  0  0
  -13.5301   -7.7139   -3.8657 H   0  0  0  0  0  0  0  0  0  0  0  0
  -15.4363   -6.9296   -7.6314 H   0  0  0  0  0  0  0  0  0  0  0  0
  -17.4004   -6.0136   -6.4177 H   0  0  0  0  0  0  0  0  0  0  0  0
  -14.7455   -2.9544   -0.1481 H   0  0  0  0  0  0  0  0  0  0  0  0
  -15.2346   -0.3846    0.6555 H   0  0  0  0  0  0  0  0  0  0  0  0
  -12.7108   -9.3144   -7.7408 N   0  0  0  0  0  0  0  0  0  0  0  0
  -13.7524   -8.7927   -7.0895 C   0  0  0  0  0  0  0  0  0  0  0  0
  -14.9896   -9.3044   -7.2305 N   0  0  0  0  0  0  0  0  0  0  0  0
  -15.2053  -10.4622   -8.1185 C   0  0  0  0  0  0  0  0  0  0  0  0
  -14.1484  -10.9811   -8.7693 C   0  0  0  0  0  0  0  0  0  0  0  0
  -12.8237  -10.3608   -8.5607 C   0  0  0  0  0  0  0  0  0  0  0  0
  -11.8677  -10.8329   -9.1525 O   0  0  0  0  0  0  0  0  0  0  0  0
  -13.5564   -7.7531   -6.2937 N   0  0  0  0  0  0  0  0  0  0  0  0
  -11.7845   -8.9689   -7.6657 H   0  0  0  0  0  0  0  0  0  0  0  0
  -16.1869  -10.8836   -8.2427 H   0  0  0  0  0  0  0  0  0  0  0  0
  -14.2250  -11.8204   -9.4306 H   0  0  0  0  0  0  0  0  0  0  0  0
  -12.6539   -7.3474   -6.1646 H   0  0  0  0  0  0  0  0  0  0  0  0
  1  2  1  0
  2  3  2  0
  3  4  1  0
  4  5  2  0
  5  6  1  0
  6  7  1  0
  7  8  2  0
  7  9  1  0
  9 10  1  0
 10 11  1  0
 11 12  1  0
 12 13  1  0
 13 14  2  0
 13 15  1  0
 15 16  2  0
 16 17  1  0
 17 18  2  0
 18 19  1  0
 19 20  2  0
 20 21  1  0
  5 22  1  0
 22 23  1  0
 22 24  2  0
  2 24  1  0
 15 20  1  0
  1 25  1  0
  1 26  1  0
  1 27  1  0
  3 28  1  0
  4 29  1  0
  6 30  1  0
  9 31  1  0
  9 32  1  0
 10 33  1  0
 10 34  1  0
 11 35  1  0
 11 36  1  0
 12 37  1  0
 16 38  1  0
 18 39  1  0
 19 40  1  0
 23 41  1  0
 24 42  1  0
 43 44  1  0
 43 48  1  0
 43 51  1  0
 44 45  2  0
 44 50  1  0
 45 46  1  0
 46 47  2  0
 46 52  1  0
 47 48  1  0
 47 53  1  0
 48 49  2  0
 50 54  1  0
 17 50  1  0
M  END
>  <CHROM.1>  (101) 
-7.85494018,-70.51786892,93.79447857,-159.45420467,156.49061714,-134.70582506
-2.59576437,-16.82262164,-4.79801655,-1.09588681,-2.13605727,-1.13911128
-2.79822442

>  <Name>  (101) 
design_2

>  <RI>  (101) 
18134700.000000

>  <Rbt.Current_Directory>  (101) 
/pylon5/mc5pksp/smaltr/gateway_workdirs/PROCESS_93251df5-8da2-4fa9-b874-71853b29d1ad

>  <Rbt.Executable>  (101) 
rbdock ($Id: //depot/dev/client3/rdock/2013.1/src/exe/rbdock.cxx#4 $)

>  <Rbt.Library>  (101) 
libRbt.so (2013.1, Build901 2013/11/27)

>  <Rbt.Parameter_File>  (101) 
/home/smaltr/software/rDock_2013.1_src//data/scripts/dock.prm

>  <Rbt.Receptor>  (101) 
/pylon5/mc5pksp/smaltr/gateway_workdirs/PROCESS_93251df5-8da2-4fa9-b874-71853b29d1ad/output/SnD-Target-Sep02/cavity/pocket_docking.prm

>  <SCORE>  (101) 
-21.179000

>  <SCORE.INTER>  (101) 
-19.124800

>  <SCORE.INTER.CONST>  (101) 
1

>  <SCORE.INTER.POLAR>  (101) 
-1.342290

>  <SCORE.INTER.REPUL>  (101) 
0.027236

>  <SCORE.INTER.ROT>  (101) 
6

>  <SCORE.INTER.VDW>  (101) 
-26.097200

>  <SCORE.INTER.norm>  (101) 
-0.796868

>  <SCORE.INTRA>  (101) 
-2.054130

>  <SCORE.INTRA.DIHEDRAL>  (101) 
-1.438940

>  <SCORE.INTRA.DIHEDRAL.0>  (101) 
15.237700

>  <SCORE.INTRA.POLAR>  (101) 
0

>  <SCORE.INTRA.POLAR.0>  (101) 
0

>  <SCORE.INTRA.REPUL>  (101) 
0

>  <SCORE.INTRA.REPUL.0>  (101) 
0

>  <SCORE.INTRA.VDW>  (101) 
-1.334660

>  <SCORE.INTRA.VDW.0>  (101) 
0.589361

>  <SCORE.INTRA.norm>  (101) 
-0.085589

>  <SCORE.RESTR>  (101) 
0

>  <SCORE.RESTR.CAVITY>  (101) 
0

>  <SCORE.RESTR.norm>  (101) 
0

>  <SCORE.SYSTEM>  (101) 
0

>  <SCORE.SYSTEM.CONST>  (101) 
0

>  <SCORE.SYSTEM.DIHEDRAL>  (101) 
0

>  <SCORE.SYSTEM.norm>  (101) 
0

>  <SCORE.heavy>  (101) 
24

>  <SCORE.norm>  (101) 
-0.882457

>  <SMILES>  (101) 
Cc1ccc(NC(=O)CCCNC(=O)c2ccccc2Cl)c(O)c1

>  <Cycle>  (101) 
228

>  <MolWeight>  (101) 
346.814000

>  <LogP>  (101) 
3.502720

>  <QED>  (101) 
0.552985

>  <SAS>  (101) 
1.8040384432889596

$$$$
design_2
     RDKit          3D

 54 56  0  0  0  0  0  0  0  0999 V2000
  -17.2584    1.2936    0.9578 C   0  0  0  0  0  0  0  0  0  0  0  0
  -17.3021   -0.1742    1.0602 C   0  0  0  0  0  0  0  0  0  0  0  0
  -18.4853   -0.8019    1.3398 C   0  0  0  0  0  0  0  0  0  0  0  0
  -18.4810   -2.2070    1.4286 C   0  0  0  0  0  0  0  0  0  0  0  0
  -17.3474   -2.9617    1.2473 C   0  0  0  0  0  0  0  0  0  0  0  0
  -17.3581   -4.3631    1.3389 N   0  0  0  0  0  0  0  0  0  0  0  0
  -18.4355   -5.1617    1.7665 C   0  0  0  0  0  0  0  0  0  0  0  0
  -19.5126   -4.6639    2.1126 O   0  0  0  0  0  0  0  0  0  0  0  0
  -18.2169   -6.6536    1.7834 C   0  0  0  0  0  0  0  0  0  0  0  0
  -18.1475   -7.1444    0.3754 C   0  0  0  0  0  0  0  0  0  0  0  0
  -16.7397   -7.2049   -0.1003 C   0  0  0  0  0  0  0  0  0  0  0  0
  -16.6334   -7.2078   -1.5477 N   0  0  0  0  0  0  0  0  0  0  0  0
  -15.4904   -6.7912   -2.2592 C   0  0  0  0  0  0  0  0  0  0  0  0
  -14.4909   -6.3906   -1.6197 O   0  0  0  0  0  0  0  0  0  0  0  0
  -15.4769   -6.8287   -3.7369 C   0  0  0  0  0  0  0  0  0  0  0  0
  -14.3901   -7.3357   -4.4184 C   0  0  0  0  0  0  0  0  0  0  0  0
  -14.3888   -7.3654   -5.7973 C   0  0  0  0  0  0  0  0  0  0  0  0
  -15.4544   -6.8983   -6.5420 C   0  0  0  0  0  0  0  0  0  0  0  0
  -16.5419   -6.3910   -5.8622 C   0  0  0  0  0  0  0  0  0  0  0  0
  -16.5491   -6.3585   -4.4797 C   0  0  0  0  0  0  0  0  0  0  0  0
  -17.9159   -5.7208   -3.6162 Cl  0  0  0  0  0  0  0  0  0  0  0  0
  -16.1574   -2.2922    0.9637 C   0  0  0  0  0  0  0  0  0  0  0  0
  -15.0034   -3.0012    0.7754 O   0  0  0  0  0  0  0  0  0  0  0  0
  -16.1664   -0.9050    0.8771 C   0  0  0  0  0  0  0  0  0  0  0  0
  -16.3014    1.5994    0.5351 H   0  0  0  0  0  0  0  0  0  0  0  0
  -18.0666    1.6376    0.3123 H   0  0  0  0  0  0  0  0  0  0  0  0
  -17.3734    1.7312    1.9495 H   0  0  0  0  0  0  0  0  0  0  0  0
  -19.4024   -0.2320    1.4891 H   0  0  0  0  0  0  0  0  0  0  0  0
  -19.4177   -2.7182    1.6508 H   0  0  0  0  0  0  0  0  0  0  0  0
  -16.5111   -4.8443    1.0723 H   0  0  0  0  0  0  0  0  0  0  0  0
  -19.0388   -7.1427    2.3063 H   0  0  0  0  0  0  0  0  0  0  0  0
  -17.2839   -6.8823    2.2985 H   0  0  0  0  0  0  0  0  0  0  0  0
  -18.6987   -6.4518   -0.2606 H   0  0  0  0  0  0  0  0  0  0  0  0
  -18.5852   -8.1413    0.3229 H   0  0  0  0  0  0  0  0  0  0  0  0
  -16.3120   -8.1400    0.2612 H   0  0  0  0  0  0  0  0  0  0  0  0
  -16.2032   -6.3387    0.2870 H   0  0  0  0  0  0  0  0  0  0  0  0
  -17.4298   -7.5291   -2.0793 H   0  0  0  0  0  0  0  0  0  0  0  0
  -13.5301   -7.7139   -3.8657 H   0  0  0  0  0  0  0  0  0  0  0  0
  -13.5196   -7.7702   -6.3157 H   0  0  0  0  0  0  0  0  0  0  0  0
  -15.4363   -6.9296   -7.6314 H   0  0  0  0  0  0  0  0  0  0  0  0
  -14.7455   -2.9544   -0.1481 H   0  0  0  0  0  0  0  0  0  0  0  0
  -15.2346   -0.3846    0.6555 H   0  0  0  0  0  0  0  0  0  0  0  0
  -19.6418   -5.9144   -6.6069 N   0  0  0  0  0  0  0  0  0  0  0  0
  -18.5674   -6.3591   -5.9517 C   0  0  0  0  0  0  0  0  0  0  0  0
  -18.6900   -7.1309   -4.8555 N   0  0  0  0  0  0  0  0  0  0  0  0
  -20.0319   -7.4957   -4.3642 C   0  0  0  0  0  0  0  0  0  0  0  0
  -21.1081   -7.0432   -5.0327 C   0  0  0  0  0  0  0  0  0  0  0  0
  -20.8881   -6.2008   -6.2264 C   0  0  0  0  0  0  0  0  0  0  0  0
  -21.8655   -5.7915   -6.8299 O   0  0  0  0  0  0  0  0  0  0  0  0
  -17.3641   -6.0296   -6.3942 N   0  0  0  0  0  0  0  0  0  0  0  0
  -19.5967   -5.3447   -7.4171 H   0  0  0  0  0  0  0  0  0  0  0  0
  -20.1480   -8.1114   -3.4901 H   0  0  0  0  0  0  0  0  0  0  0  0
  -22.1139   -7.2651   -4.7379 H   0  0  0  0  0  0  0  0  0  0  0  0
  -17.2346   -5.4597   -7.2030 H   0  0  0  0  0  0  0  0  0  0  0  0
  1  2  1  0
  2  3  2  0
  3  4  1  0
  4  5  2  0
  5  6  1  0
  6  7  1  0
  7  8  2  0
  7  9  1  0
  9 10  1  0
 10 11  1  0
 11 12  1  0
 12 13  1  0
 13 14  2  0
 13 15  1  0
 15 16  2  0
 16 17  1  0
 17 18  2  0
 18 19  1  0
 19 20  2  0
 20 21  1  0
  5 22  1  0
 22 23  1  0
 22 24  2  0
  2 24  1  0
 15 20  1  0
  1 25  1  0
  1 26  1  0
  1 27  1  0
  3 28  1  0
  4 29  1  0
  6 30  1  0
  9 31  1  0
  9 32  1  0
 10 33  1  0
 10 34  1  0
 11 35  1  0
 11 36  1  0
 12 37  1  0
 16 38  1  0
 17 39  1  0
 18 40  1  0
 23 41  1  0
 24 42  1  0
 43 44  1  0
 43 48  1  0
 43 51  1  0
 44 45  2  0
 44 50  1  0
 45 46  1  0
 46 47  2  0
 46 52  1  0
 47 48  1  0
 47 53  1  0
 48 49  2  0
 50 54  1  0
 19 50  1  0
M  END
>  <CHROM.1>  (102) 
-7.85494018,-70.51786892,93.79447857,-159.45420467,156.49061714,-134.70582506
-2.59576437,-16.82262164,-4.79801655,-1.09588681,-2.13605727,-1.13911128
-2.79822442

>  <Name>  (102) 
design_2

>  <RI>  (102) 
18134700.000000

>  <Rbt.Current_Directory>  (102) 
/pylon5/mc5pksp/smaltr/gateway_workdirs/PROCESS_93251df5-8da2-4fa9-b874-71853b29d1ad

>  <Rbt.Executable>  (102) 
rbdock ($Id: //depot/dev/client3/rdock/2013.1/src/exe/rbdock.cxx#4 $)

>  <Rbt.Library>  (102) 
libRbt.so (2013.1, Build901 2013/11/27)

>  <Rbt.Parameter_File>  (102) 
/home/smaltr/software/rDock_2013.1_src//data/scripts/dock.prm

>  <Rbt.Receptor>  (102) 
/pylon5/mc5pksp/smaltr/gateway_workdirs/PROCESS_93251df5-8da2-4fa9-b874-71853b29d1ad/output/SnD-Target-Sep02/cavity/pocket_docking.prm

>  <SCORE>  (102) 
-21.179000

>  <SCORE.INTER>  (102) 
-19.124800

>  <SCORE.INTER.CONST>  (102) 
1

>  <SCORE.INTER.POLAR>  (102) 
-1.342290

>  <SCORE.INTER.REPUL>  (102) 
0.027236

>  <SCORE.INTER.ROT>  (102) 
6

>  <SCORE.INTER.VDW>  (102) 
-26.097200

>  <SCORE.INTER.norm>  (102) 
-0.796868

>  <SCORE.INTRA>  (102) 
-2.054130

>  <SCORE.INTRA.DIHEDRAL>  (102) 
-1.438940

>  <SCORE.INTRA.DIHEDRAL.0>  (102) 
15.237700

>  <SCORE.INTRA.POLAR>  (102) 
0

>  <SCORE.INTRA.POLAR.0>  (102) 
0

>  <SCORE.INTRA.REPUL>  (102) 
0

>  <SCORE.INTRA.REPUL.0>  (102) 
0

>  <SCORE.INTRA.VDW>  (102) 
-1.334660

>  <SCORE.INTRA.VDW.0>  (102) 
0.589361

>  <SCORE.INTRA.norm>  (102) 
-0.085589

>  <SCORE.RESTR>  (102) 
0

>  <SCORE.RESTR.CAVITY>  (102) 
0

>  <SCORE.RESTR.norm>  (102) 
0

>  <SCORE.SYSTEM>  (102) 
0

>  <SCORE.SYSTEM.CONST>  (102) 
0

>  <SCORE.SYSTEM.DIHEDRAL>  (102) 
0

>  <SCORE.SYSTEM.norm>  (102) 
0

>  <SCORE.heavy>  (102) 
24

>  <SCORE.norm>  (102) 
-0.882457

>  <SMILES>  (102) 
Cc1ccc(NC(=O)CCCNC(=O)c2ccccc2Cl)c(O)c1

>  <Cycle>  (102) 
228

>  <MolWeight>  (102) 
346.814000

>  <LogP>  (102) 
3.502720

>  <QED>  (102) 
0.552985

>  <SAS>  (102) 
1.8040384432889596

$$$$
design_2
     RDKit          3D

 54 56  0  0  0  0  0  0  0  0999 V2000
  -17.2584    1.2936    0.9578 C   0  0  0  0  0  0  0  0  0  0  0  0
  -17.3021   -0.1742    1.0602 C   0  0  0  0  0  0  0  0  0  0  0  0
  -18.4853   -0.8019    1.3398 C   0  0  0  0  0  0  0  0  0  0  0  0
  -18.4810   -2.2070    1.4286 C   0  0  0  0  0  0  0  0  0  0  0  0
  -17.3474   -2.9617    1.2473 C   0  0  0  0  0  0  0  0  0  0  0  0
  -17.3581   -4.3631    1.3389 N   0  0  0  0  0  0  0  0  0  0  0  0
  -18.4355   -5.1617    1.7665 C   0  0  0  0  0  0  0  0  0  0  0  0
  -19.5126   -4.6639    2.1126 O   0  0  0  0  0  0  0  0  0  0  0  0
  -18.2169   -6.6536    1.7834 C   0  0  0  0  0  0  0  0  0  0  0  0
  -18.1475   -7.1444    0.3754 C   0  0  0  0  0  0  0  0  0  0  0  0
  -16.7397   -7.2049   -0.1003 C   0  0  0  0  0  0  0  0  0  0  0  0
  -16.6334   -7.2078   -1.5477 N   0  0  0  0  0  0  0  0  0  0  0  0
  -15.4904   -6.7912   -2.2592 C   0  0  0  0  0  0  0  0  0  0  0  0
  -14.4909   -6.3906   -1.6197 O   0  0  0  0  0  0  0  0  0  0  0  0
  -15.4769   -6.8287   -3.7369 C   0  0  0  0  0  0  0  0  0  0  0  0
  -14.3901   -7.3357   -4.4184 C   0  0  0  0  0  0  0  0  0  0  0  0
  -14.3888   -7.3654   -5.7973 C   0  0  0  0  0  0  0  0  0  0  0  0
  -15.4544   -6.8983   -6.5420 C   0  0  0  0  0  0  0  0  0  0  0  0
  -16.5419   -6.3910   -5.8622 C   0  0  0  0  0  0  0  0  0  0  0  0
  -16.5491   -6.3585   -4.4797 C   0  0  0  0  0  0  0  0  0  0  0  0
  -17.9159   -5.7208   -3.6162 Cl  0  0  0  0  0  0  0  0  0  0  0  0
  -16.1574   -2.2922    0.9637 C   0  0  0  0  0  0  0  0  0  0  0  0
  -15.0034   -3.0012    0.7754 O   0  0  0  0  0  0  0  0  0  0  0  0
  -16.1664   -0.9050    0.8771 C   0  0  0  0  0  0  0  0  0  0  0  0
  -16.3014    1.5994    0.5351 H   0  0  0  0  0  0  0  0  0  0  0  0
  -18.0666    1.6376    0.3123 H   0  0  0  0  0  0  0  0  0  0  0  0
  -17.3734    1.7312    1.9495 H   0  0  0  0  0  0  0  0  0  0  0  0
  -19.4024   -0.2320    1.4891 H   0  0  0  0  0  0  0  0  0  0  0  0
  -19.4177   -2.7182    1.6508 H   0  0  0  0  0  0  0  0  0  0  0  0
  -16.5111   -4.8443    1.0723 H   0  0  0  0  0  0  0  0  0  0  0  0
  -19.0388   -7.1427    2.3063 H   0  0  0  0  0  0  0  0  0  0  0  0
  -17.2839   -6.8823    2.2985 H   0  0  0  0  0  0  0  0  0  0  0  0
  -18.6987   -6.4518   -0.2606 H   0  0  0  0  0  0  0  0  0  0  0  0
  -18.5852   -8.1413    0.3229 H   0  0  0  0  0  0  0  0  0  0  0  0
  -16.3120   -8.1400    0.2612 H   0  0  0  0  0  0  0  0  0  0  0  0
  -16.2032   -6.3387    0.2870 H   0  0  0  0  0  0  0  0  0  0  0  0
  -17.4298   -7.5291   -2.0793 H   0  0  0  0  0  0  0  0  0  0  0  0
  -13.5196   -7.7702   -6.3157 H   0  0  0  0  0  0  0  0  0  0  0  0
  -15.4363   -6.9296   -7.6314 H   0  0  0  0  0  0  0  0  0  0  0  0
  -17.4004   -6.0136   -6.4177 H   0  0  0  0  0  0  0  0  0  0  0  0
  -14.7455   -2.9544   -0.1481 H   0  0  0  0  0  0  0  0  0  0  0  0
  -15.2346   -0.3846    0.6555 H   0  0  0  0  0  0  0  0  0  0  0  0
  -11.5749   -8.8287   -3.9311 N   0  0  0  0  0  0  0  0  0  0  0  0
  -12.6422   -8.3516   -4.5752 C   0  0  0  0  0  0  0  0  0  0  0  0
  -12.7897   -8.5241   -5.9021 N   0  0  0  0  0  0  0  0  0  0  0  0
  -11.7579   -9.2521   -6.6642 C   0  0  0  0  0  0  0  0  0  0  0  0
  -10.6868   -9.7297   -6.0051 C   0  0  0  0  0  0  0  0  0  0  0  0
  -10.5997   -9.4977   -4.5486 C   0  0  0  0  0  0  0  0  0  0  0  0
   -9.6272   -9.9312   -3.9540 O   0  0  0  0  0  0  0  0  0  0  0  0
  -13.5665   -7.6979   -3.8891 N   0  0  0  0  0  0  0  0  0  0  0  0
  -11.4272   -8.7242   -2.9563 H   0  0  0  0  0  0  0  0  0  0  0  0
  -11.8599   -9.3989   -7.7247 H   0  0  0  0  0  0  0  0  0  0  0  0
   -9.8966  -10.2680   -6.4885 H   0  0  0  0  0  0  0  0  0  0  0  0
  -13.4910   -7.5510   -2.9050 H   0  0  0  0  0  0  0  0  0  0  0  0
  1  2  1  0
  2  3  2  0
  3  4  1  0
  4  5  2  0
  5  6  1  0
  6  7  1  0
  7  8  2  0
  7  9  1  0
  9 10  1  0
 10 11  1  0
 11 12  1  0
 12 13  1  0
 13 14  2  0
 13 15  1  0
 15 16  1  0
 16 17  2  0
 17 18  1  0
 18 19  2  0
 19 20  1  0
 20 21  1  0
  5 22  1  0
 22 23  1  0
 22 24  2  0
  2 24  1  0
 15 20  2  0
  1 25  1  0
  1 26  1  0
  1 27  1  0
  3 28  1  0
  4 29  1  0
  6 30  1  0
  9 31  1  0
  9 32  1  0
 10 33  1  0
 10 34  1  0
 11 35  1  0
 11 36  1  0
 12 37  1  0
 17 38  1  0
 18 39  1  0
 19 40  1  0
 23 41  1  0
 24 42  1  0
 43 44  1  0
 43 48  1  0
 43 51  1  0
 44 45  2  0
 44 50  1  0
 45 46  1  0
 46 47  2  0
 46 52  1  0
 47 48  1  0
 47 53  1  0
 48 49  2  0
 50 54  1  0
 16 50  1  0
M  END
>  <CHROM.1>  (103) 
-7.85494018,-70.51786892,93.79447857,-159.45420467,156.49061714,-134.70582506
-2.59576437,-16.82262164,-4.79801655,-1.09588681,-2.13605727,-1.13911128
-2.79822442

>  <Name>  (103) 
design_2

>  <RI>  (103) 
18134700.000000

>  <Rbt.Current_Directory>  (103) 
/pylon5/mc5pksp/smaltr/gateway_workdirs/PROCESS_93251df5-8da2-4fa9-b874-71853b29d1ad

>  <Rbt.Executable>  (103) 
rbdock ($Id: //depot/dev/client3/rdock/2013.1/src/exe/rbdock.cxx#4 $)

>  <Rbt.Library>  (103) 
libRbt.so (2013.1, Build901 2013/11/27)

>  <Rbt.Parameter_File>  (103) 
/home/smaltr/software/rDock_2013.1_src//data/scripts/dock.prm

>  <Rbt.Receptor>  (103) 
/pylon5/mc5pksp/smaltr/gateway_workdirs/PROCESS_93251df5-8da2-4fa9-b874-71853b29d1ad/output/SnD-Target-Sep02/cavity/pocket_docking.prm

>  <SCORE>  (103) 
-21.179000

>  <SCORE.INTER>  (103) 
-19.124800

>  <SCORE.INTER.CONST>  (103) 
1

>  <SCORE.INTER.POLAR>  (103) 
-1.342290

>  <SCORE.INTER.REPUL>  (103) 
0.027236

>  <SCORE.INTER.ROT>  (103) 
6

>  <SCORE.INTER.VDW>  (103) 
-26.097200

>  <SCORE.INTER.norm>  (103) 
-0.796868

>  <SCORE.INTRA>  (103) 
-2.054130

>  <SCORE.INTRA.DIHEDRAL>  (103) 
-1.438940

>  <SCORE.INTRA.DIHEDRAL.0>  (103) 
15.237700

>  <SCORE.INTRA.POLAR>  (103) 
0

>  <SCORE.INTRA.POLAR.0>  (103) 
0

>  <SCORE.INTRA.REPUL>  (103) 
0

>  <SCORE.INTRA.REPUL.0>  (103) 
0

>  <SCORE.INTRA.VDW>  (103) 
-1.334660

>  <SCORE.INTRA.VDW.0>  (103) 
0.589361

>  <SCORE.INTRA.norm>  (103) 
-0.085589

>  <SCORE.RESTR>  (103) 
0

>  <SCORE.RESTR.CAVITY>  (103) 
0

>  <SCORE.RESTR.norm>  (103) 
0

>  <SCORE.SYSTEM>  (103) 
0

>  <SCORE.SYSTEM.CONST>  (103) 
0

>  <SCORE.SYSTEM.DIHEDRAL>  (103) 
0

>  <SCORE.SYSTEM.norm>  (103) 
0

>  <SCORE.heavy>  (103) 
24

>  <SCORE.norm>  (103) 
-0.882457

>  <SMILES>  (103) 
Cc1ccc(NC(=O)CCCNC(=O)c2ccccc2Cl)c(O)c1

>  <Cycle>  (103) 
228

>  <MolWeight>  (103) 
346.814000

>  <LogP>  (103) 
3.502720

>  <QED>  (103) 
0.552985

>  <SAS>  (103) 
1.8040384432889596

$$$$
design_2
     RDKit          3D

 54 56  0  0  0  0  0  0  0  0999 V2000
  -17.2584    1.2936    0.9578 C   0  0  0  0  0  0  0  0  0  0  0  0
  -17.3021   -0.1742    1.0602 C   0  0  0  0  0  0  0  0  0  0  0  0
  -18.4853   -0.8019    1.3398 C   0  0  0  0  0  0  0  0  0  0  0  0
  -18.4810   -2.2070    1.4286 C   0  0  0  0  0  0  0  0  0  0  0  0
  -17.3474   -2.9617    1.2473 C   0  0  0  0  0  0  0  0  0  0  0  0
  -17.3581   -4.3631    1.3389 N   0  0  0  0  0  0  0  0  0  0  0  0
  -18.4355   -5.1617    1.7665 C   0  0  0  0  0  0  0  0  0  0  0  0
  -19.5126   -4.6639    2.1126 O   0  0  0  0  0  0  0  0  0  0  0  0
  -18.2169   -6.6536    1.7834 C   0  0  0  0  0  0  0  0  0  0  0  0
  -18.1475   -7.1444    0.3754 C   0  0  0  0  0  0  0  0  0  0  0  0
  -16.7397   -7.2049   -0.1003 C   0  0  0  0  0  0  0  0  0  0  0  0
  -16.6334   -7.2078   -1.5477 N   0  0  0  0  0  0  0  0  0  0  0  0
  -15.4904   -6.7912   -2.2592 C   0  0  0  0  0  0  0  0  0  0  0  0
  -14.4909   -6.3906   -1.6197 O   0  0  0  0  0  0  0  0  0  0  0  0
  -15.4769   -6.8287   -3.7369 C   0  0  0  0  0  0  0  0  0  0  0  0
  -14.3901   -7.3357   -4.4184 C   0  0  0  0  0  0  0  0  0  0  0  0
  -14.3888   -7.3654   -5.7973 C   0  0  0  0  0  0  0  0  0  0  0  0
  -15.4544   -6.8983   -6.5420 C   0  0  0  0  0  0  0  0  0  0  0  0
  -16.5419   -6.3910   -5.8622 C   0  0  0  0  0  0  0  0  0  0  0  0
  -16.5491   -6.3585   -4.4797 C   0  0  0  0  0  0  0  0  0  0  0  0
  -17.9159   -5.7208   -3.6162 Cl  0  0  0  0  0  0  0  0  0  0  0  0
  -16.1574   -2.2922    0.9637 C   0  0  0  0  0  0  0  0  0  0  0  0
  -15.0034   -3.0012    0.7754 O   0  0  0  0  0  0  0  0  0  0  0  0
  -16.1664   -0.9050    0.8771 C   0  0  0  0  0  0  0  0  0  0  0  0
  -16.3014    1.5994    0.5351 H   0  0  0  0  0  0  0  0  0  0  0  0
  -18.0666    1.6376    0.3123 H   0  0  0  0  0  0  0  0  0  0  0  0
  -17.3734    1.7312    1.9495 H   0  0  0  0  0  0  0  0  0  0  0  0
  -19.4024   -0.2320    1.4891 H   0  0  0  0  0  0  0  0  0  0  0  0
  -16.5111   -4.8443    1.0723 H   0  0  0  0  0  0  0  0  0  0  0  0
  -19.0388   -7.1427    2.3063 H   0  0  0  0  0  0  0  0  0  0  0  0
  -17.2839   -6.8823    2.2985 H   0  0  0  0  0  0  0  0  0  0  0  0
  -18.6987   -6.4518   -0.2606 H   0  0  0  0  0  0  0  0  0  0  0  0
  -18.5852   -8.1413    0.3229 H   0  0  0  0  0  0  0  0  0  0  0  0
  -16.3120   -8.1400    0.2612 H   0  0  0  0  0  0  0  0  0  0  0  0
  -16.2032   -6.3387    0.2870 H   0  0  0  0  0  0  0  0  0  0  0  0
  -17.4298   -7.5291   -2.0793 H   0  0  0  0  0  0  0  0  0  0  0  0
  -13.5301   -7.7139   -3.8657 H   0  0  0  0  0  0  0  0  0  0  0  0
  -13.5196   -7.7702   -6.3157 H   0  0  0  0  0  0  0  0  0  0  0  0
  -15.4363   -6.9296   -7.6314 H   0  0  0  0  0  0  0  0  0  0  0  0
  -17.4004   -6.0136   -6.4177 H   0  0  0  0  0  0  0  0  0  0  0  0
  -14.7455   -2.9544   -0.1481 H   0  0  0  0  0  0  0  0  0  0  0  0
  -15.2346   -0.3846    0.6555 H   0  0  0  0  0  0  0  0  0  0  0  0
  -21.6680   -2.6411    1.6439 N   0  0  0  0  0  0  0  0  0  0  0  0
  -20.5019   -2.0457    1.3847 C   0  0  0  0  0  0  0  0  0  0  0  0
  -20.4536   -0.8031    0.8691 N   0  0  0  0  0  0  0  0  0  0  0  0
  -21.7072   -0.0806    0.5833 C   0  0  0  0  0  0  0  0  0  0  0  0
  -22.8770   -0.6894    0.8494 C   0  0  0  0  0  0  0  0  0  0  0  0
  -22.8439   -2.0543    1.4142 C   0  0  0  0  0  0  0  0  0  0  0  0
  -23.9059   -2.6038    1.6537 O   0  0  0  0  0  0  0  0  0  0  0  0
  -19.3780   -2.6966    1.6414 N   0  0  0  0  0  0  0  0  0  0  0  0
  -21.7487   -3.5536    2.0231 H   0  0  0  0  0  0  0  0  0  0  0  0
  -21.6869    0.9126    0.1714 H   0  0  0  0  0  0  0  0  0  0  0  0
  -23.8280   -0.2301    0.6694 H   0  0  0  0  0  0  0  0  0  0  0  0
  -19.3750   -3.6183    2.0235 H   0  0  0  0  0  0  0  0  0  0  0  0
  1  2  1  0
  2  3  2  0
  3  4  1  0
  4  5  2  0
  5  6  1  0
  6  7  1  0
  7  8  2  0
  7  9  1  0
  9 10  1  0
 10 11  1  0
 11 12  1  0
 12 13  1  0
 13 14  2  0
 13 15  1  0
 15 16  2  0
 16 17  1  0
 17 18  2  0
 18 19  1  0
 19 20  2  0
 20 21  1  0
  5 22  1  0
 22 23  1  0
 22 24  2  0
  2 24  1  0
 15 20  1  0
  1 25  1  0
  1 26  1  0
  1 27  1  0
  3 28  1  0
  6 29  1  0
  9 30  1  0
  9 31  1  0
 10 32  1  0
 10 33  1  0
 11 34  1  0
 11 35  1  0
 12 36  1  0
 16 37  1  0
 17 38  1  0
 18 39  1  0
 19 40  1  0
 23 41  1  0
 24 42  1  0
 43 44  1  0
 43 48  1  0
 43 51  1  0
 44 45  2  0
 44 50  1  0
 45 46  1  0
 46 47  2  0
 46 52  1  0
 47 48  1  0
 47 53  1  0
 48 49  2  0
 50 54  1  0
  4 50  1  0
M  END
>  <CHROM.1>  (104) 
-7.85494018,-70.51786892,93.79447857,-159.45420467,156.49061714,-134.70582506
-2.59576437,-16.82262164,-4.79801655,-1.09588681,-2.13605727,-1.13911128
-2.79822442

>  <Name>  (104) 
design_2

>  <RI>  (104) 
18134700.000000

>  <Rbt.Current_Directory>  (104) 
/pylon5/mc5pksp/smaltr/gateway_workdirs/PROCESS_93251df5-8da2-4fa9-b874-71853b29d1ad

>  <Rbt.Executable>  (104) 
rbdock ($Id: //depot/dev/client3/rdock/2013.1/src/exe/rbdock.cxx#4 $)

>  <Rbt.Library>  (104) 
libRbt.so (2013.1, Build901 2013/11/27)

>  <Rbt.Parameter_File>  (104) 
/home/smaltr/software/rDock_2013.1_src//data/scripts/dock.prm

>  <Rbt.Receptor>  (104) 
/pylon5/mc5pksp/smaltr/gateway_workdirs/PROCESS_93251df5-8da2-4fa9-b874-71853b29d1ad/output/SnD-Target-Sep02/cavity/pocket_docking.prm

>  <SCORE>  (104) 
-21.179000

>  <SCORE.INTER>  (104) 
-19.124800

>  <SCORE.INTER.CONST>  (104) 
1

>  <SCORE.INTER.POLAR>  (104) 
-1.342290

>  <SCORE.INTER.REPUL>  (104) 
0.027236

>  <SCORE.INTER.ROT>  (104) 
6

>  <SCORE.INTER.VDW>  (104) 
-26.097200

>  <SCORE.INTER.norm>  (104) 
-0.796868

>  <SCORE.INTRA>  (104) 
-2.054130

>  <SCORE.INTRA.DIHEDRAL>  (104) 
-1.438940

>  <SCORE.INTRA.DIHEDRAL.0>  (104) 
15.237700

>  <SCORE.INTRA.POLAR>  (104) 
0

>  <SCORE.INTRA.POLAR.0>  (104) 
0

>  <SCORE.INTRA.REPUL>  (104) 
0

>  <SCORE.INTRA.REPUL.0>  (104) 
0

>  <SCORE.INTRA.VDW>  (104) 
-1.334660

>  <SCORE.INTRA.VDW.0>  (104) 
0.589361

>  <SCORE.INTRA.norm>  (104) 
-0.085589

>  <SCORE.RESTR>  (104) 
0

>  <SCORE.RESTR.CAVITY>  (104) 
0

>  <SCORE.RESTR.norm>  (104) 
0

>  <SCORE.SYSTEM>  (104) 
0

>  <SCORE.SYSTEM.CONST>  (104) 
0

>  <SCORE.SYSTEM.DIHEDRAL>  (104) 
0

>  <SCORE.SYSTEM.norm>  (104) 
0

>  <SCORE.heavy>  (104) 
24

>  <SCORE.norm>  (104) 
-0.882457

>  <SMILES>  (104) 
Cc1ccc(NC(=O)CCCNC(=O)c2ccccc2Cl)c(O)c1

>  <Cycle>  (104) 
228

>  <MolWeight>  (104) 
346.814000

>  <LogP>  (104) 
3.502720

>  <QED>  (104) 
0.552985

>  <SAS>  (104) 
1.8040384432889596

$$$$
design_2
     RDKit          3D

 54 56  0  0  0  0  0  0  0  0999 V2000
  -17.2584    1.2936    0.9578 C   0  0  0  0  0  0  0  0  0  0  0  0
  -17.3021   -0.1742    1.0602 C   0  0  0  0  0  0  0  0  0  0  0  0
  -18.4853   -0.8019    1.3398 C   0  0  0  0  0  0  0  0  0  0  0  0
  -18.4810   -2.2070    1.4286 C   0  0  0  0  0  0  0  0  0  0  0  0
  -17.3474   -2.9617    1.2473 C   0  0  0  0  0  0  0  0  0  0  0  0
  -17.3581   -4.3631    1.3389 N   0  0  0  0  0  0  0  0  0  0  0  0
  -18.4355   -5.1617    1.7665 C   0  0  0  0  0  0  0  0  0  0  0  0
  -19.5126   -4.6639    2.1126 O   0  0  0  0  0  0  0  0  0  0  0  0
  -18.2169   -6.6536    1.7834 C   0  0  0  0  0  0  0  0  0  0  0  0
  -18.1475   -7.1444    0.3754 C   0  0  0  0  0  0  0  0  0  0  0  0
  -16.7397   -7.2049   -0.1003 C   0  0  0  0  0  0  0  0  0  0  0  0
  -16.6334   -7.2078   -1.5477 N   0  0  0  0  0  0  0  0  0  0  0  0
  -15.4904   -6.7912   -2.2592 C   0  0  0  0  0  0  0  0  0  0  0  0
  -14.4909   -6.3906   -1.6197 O   0  0  0  0  0  0  0  0  0  0  0  0
  -15.4769   -6.8287   -3.7369 C   0  0  0  0  0  0  0  0  0  0  0  0
  -14.3901   -7.3357   -4.4184 C   0  0  0  0  0  0  0  0  0  0  0  0
  -14.3888   -7.3654   -5.7973 C   0  0  0  0  0  0  0  0  0  0  0  0
  -15.4544   -6.8983   -6.5420 C   0  0  0  0  0  0  0  0  0  0  0  0
  -16.5419   -6.3910   -5.8622 C   0  0  0  0  0  0  0  0  0  0  0  0
  -16.5491   -6.3585   -4.4797 C   0  0  0  0  0  0  0  0  0  0  0  0
  -17.9159   -5.7208   -3.6162 Cl  0  0  0  0  0  0  0  0  0  0  0  0
  -16.1574   -2.2922    0.9637 C   0  0  0  0  0  0  0  0  0  0  0  0
  -15.0034   -3.0012    0.7754 O   0  0  0  0  0  0  0  0  0  0  0  0
  -16.1664   -0.9050    0.8771 C   0  0  0  0  0  0  0  0  0  0  0  0
  -16.3014    1.5994    0.5351 H   0  0  0  0  0  0  0  0  0  0  0  0
  -18.0666    1.6376    0.3123 H   0  0  0  0  0  0  0  0  0  0  0  0
  -17.3734    1.7312    1.9495 H   0  0  0  0  0  0  0  0  0  0  0  0
  -19.4177   -2.7182    1.6508 H   0  0  0  0  0  0  0  0  0  0  0  0
  -16.5111   -4.8443    1.0723 H   0  0  0  0  0  0  0  0  0  0  0  0
  -19.0388   -7.1427    2.3063 H   0  0  0  0  0  0  0  0  0  0  0  0
  -17.2839   -6.8823    2.2985 H   0  0  0  0  0  0  0  0  0  0  0  0
  -18.6987   -6.4518   -0.2606 H   0  0  0  0  0  0  0  0  0  0  0  0
  -18.5852   -8.1413    0.3229 H   0  0  0  0  0  0  0  0  0  0  0  0
  -16.3120   -8.1400    0.2612 H   0  0  0  0  0  0  0  0  0  0  0  0
  -16.2032   -6.3387    0.2870 H   0  0  0  0  0  0  0  0  0  0  0  0
  -17.4298   -7.5291   -2.0793 H   0  0  0  0  0  0  0  0  0  0  0  0
  -13.5301   -7.7139   -3.8657 H   0  0  0  0  0  0  0  0  0  0  0  0
  -13.5196   -7.7702   -6.3157 H   0  0  0  0  0  0  0  0  0  0  0  0
  -15.4363   -6.9296   -7.6314 H   0  0  0  0  0  0  0  0  0  0  0  0
  -17.4004   -6.0136   -6.4177 H   0  0  0  0  0  0  0  0  0  0  0  0
  -14.7455   -2.9544   -0.1481 H   0  0  0  0  0  0  0  0  0  0  0  0
  -15.2346   -0.3846    0.6555 H   0  0  0  0  0  0  0  0  0  0  0  0
  -21.6538   -0.2224    1.4666 N   0  0  0  0  0  0  0  0  0  0  0  0
  -20.5107   -0.8889    1.2925 C   0  0  0  0  0  0  0  0  0  0  0  0
  -20.5084   -2.1854    0.9298 N   0  0  0  0  0  0  0  0  0  0  0  0
  -21.7879   -2.8882    0.7193 C   0  0  0  0  0  0  0  0  0  0  0  0
  -22.9343   -2.2068    0.8964 C   0  0  0  0  0  0  0  0  0  0  0  0
  -22.8506   -0.7865    1.2952 C   0  0  0  0  0  0  0  0  0  0  0  0
  -23.8915   -0.1717    1.4556 O   0  0  0  0  0  0  0  0  0  0  0  0
  -19.3636   -0.2561    1.4828 N   0  0  0  0  0  0  0  0  0  0  0  0
  -21.7007    0.7314    1.7329 H   0  0  0  0  0  0  0  0  0  0  0  0
  -21.8044   -3.9237    0.4295 H   0  0  0  0  0  0  0  0  0  0  0  0
  -23.9016   -2.6474    0.7626 H   0  0  0  0  0  0  0  0  0  0  0  0
  -19.3264    0.7041    1.7517 H   0  0  0  0  0  0  0  0  0  0  0  0
  1  2  1  0
  2  3  2  0
  3  4  1  0
  4  5  2  0
  5  6  1  0
  6  7  1  0
  7  8  2  0
  7  9  1  0
  9 10  1  0
 10 11  1  0
 11 12  1  0
 12 13  1  0
 13 14  2  0
 13 15  1  0
 15 16  2  0
 16 17  1  0
 17 18  2  0
 18 19  1  0
 19 20  2  0
 20 21  1  0
  5 22  1  0
 22 23  1  0
 22 24  2  0
  2 24  1  0
 15 20  1  0
  1 25  1  0
  1 26  1  0
  1 27  1  0
  4 28  1  0
  6 29  1  0
  9 30  1  0
  9 31  1  0
 10 32  1  0
 10 33  1  0
 11 34  1  0
 11 35  1  0
 12 36  1  0
 16 37  1  0
 17 38  1  0
 18 39  1  0
 19 40  1  0
 23 41  1  0
 24 42  1  0
 43 44  1  0
 43 48  1  0
 43 51  1  0
 44 45  2  0
 44 50  1  0
 45 46  1  0
 46 47  2  0
 46 52  1  0
 47 48  1  0
 47 53  1  0
 48 49  2  0
 50 54  1  0
  3 50  1  0
M  END
>  <CHROM.1>  (105) 
-7.85494018,-70.51786892,93.79447857,-159.45420467,156.49061714,-134.70582506
-2.59576437,-16.82262164,-4.79801655,-1.09588681,-2.13605727,-1.13911128
-2.79822442

>  <Name>  (105) 
design_2

>  <RI>  (105) 
18134700.000000

>  <Rbt.Current_Directory>  (105) 
/pylon5/mc5pksp/smaltr/gateway_workdirs/PROCESS_93251df5-8da2-4fa9-b874-71853b29d1ad

>  <Rbt.Executable>  (105) 
rbdock ($Id: //depot/dev/client3/rdock/2013.1/src/exe/rbdock.cxx#4 $)

>  <Rbt.Library>  (105) 
libRbt.so (2013.1, Build901 2013/11/27)

>  <Rbt.Parameter_File>  (105) 
/home/smaltr/software/rDock_2013.1_src//data/scripts/dock.prm

>  <Rbt.Receptor>  (105) 
/pylon5/mc5pksp/smaltr/gateway_workdirs/PROCESS_93251df5-8da2-4fa9-b874-71853b29d1ad/output/SnD-Target-Sep02/cavity/pocket_docking.prm

>  <SCORE>  (105) 
-21.179000

>  <SCORE.INTER>  (105) 
-19.124800

>  <SCORE.INTER.CONST>  (105) 
1

>  <SCORE.INTER.POLAR>  (105) 
-1.342290

>  <SCORE.INTER.REPUL>  (105) 
0.027236

>  <SCORE.INTER.ROT>  (105) 
6

>  <SCORE.INTER.VDW>  (105) 
-26.097200

>  <SCORE.INTER.norm>  (105) 
-0.796868

>  <SCORE.INTRA>  (105) 
-2.054130

>  <SCORE.INTRA.DIHEDRAL>  (105) 
-1.438940

>  <SCORE.INTRA.DIHEDRAL.0>  (105) 
15.237700

>  <SCORE.INTRA.POLAR>  (105) 
0

>  <SCORE.INTRA.POLAR.0>  (105) 
0

>  <SCORE.INTRA.REPUL>  (105) 
0

>  <SCORE.INTRA.REPUL.0>  (105) 
0

>  <SCORE.INTRA.VDW>  (105) 
-1.334660

>  <SCORE.INTRA.VDW.0>  (105) 
0.589361

>  <SCORE.INTRA.norm>  (105) 
-0.085589

>  <SCORE.RESTR>  (105) 
0

>  <SCORE.RESTR.CAVITY>  (105) 
0

>  <SCORE.RESTR.norm>  (105) 
0

>  <SCORE.SYSTEM>  (105) 
0

>  <SCORE.SYSTEM.CONST>  (105) 
0

>  <SCORE.SYSTEM.DIHEDRAL>  (105) 
0

>  <SCORE.SYSTEM.norm>  (105) 
0

>  <SCORE.heavy>  (105) 
24

>  <SCORE.norm>  (105) 
-0.882457

>  <SMILES>  (105) 
Cc1ccc(NC(=O)CCCNC(=O)c2ccccc2Cl)c(O)c1

>  <Cycle>  (105) 
228

>  <MolWeight>  (105) 
346.814000

>  <LogP>  (105) 
3.502720

>  <QED>  (105) 
0.552985

>  <SAS>  (105) 
1.8040384432889596

$$$$
design_2
     RDKit          3D

 54 56  0  0  0  0  0  0  0  0999 V2000
  -17.2584    1.2936    0.9578 C   0  0  0  0  0  0  0  0  0  0  0  0
  -17.3021   -0.1742    1.0602 C   0  0  0  0  0  0  0  0  0  0  0  0
  -18.4853   -0.8019    1.3398 C   0  0  0  0  0  0  0  0  0  0  0  0
  -18.4810   -2.2070    1.4286 C   0  0  0  0  0  0  0  0  0  0  0  0
  -17.3474   -2.9617    1.2473 C   0  0  0  0  0  0  0  0  0  0  0  0
  -17.3581   -4.3631    1.3389 N   0  0  0  0  0  0  0  0  0  0  0  0
  -18.4355   -5.1617    1.7665 C   0  0  0  0  0  0  0  0  0  0  0  0
  -19.5126   -4.6639    2.1126 O   0  0  0  0  0  0  0  0  0  0  0  0
  -18.2169   -6.6536    1.7834 C   0  0  0  0  0  0  0  0  0  0  0  0
  -18.1475   -7.1444    0.3754 C   0  0  0  0  0  0  0  0  0  0  0  0
  -16.7397   -7.2049   -0.1003 C   0  0  0  0  0  0  0  0  0  0  0  0
  -16.6334   -7.2078   -1.5477 N   0  0  0  0  0  0  0  0  0  0  0  0
  -15.4904   -6.7912   -2.2592 C   0  0  0  0  0  0  0  0  0  0  0  0
  -14.4909   -6.3906   -1.6197 O   0  0  0  0  0  0  0  0  0  0  0  0
  -15.4769   -6.8287   -3.7369 C   0  0  0  0  0  0  0  0  0  0  0  0
  -14.3901   -7.3357   -4.4184 C   0  0  0  0  0  0  0  0  0  0  0  0
  -14.3888   -7.3654   -5.7973 C   0  0  0  0  0  0  0  0  0  0  0  0
  -15.4544   -6.8983   -6.5420 C   0  0  0  0  0  0  0  0  0  0  0  0
  -16.5419   -6.3910   -5.8622 C   0  0  0  0  0  0  0  0  0  0  0  0
  -16.5491   -6.3585   -4.4797 C   0  0  0  0  0  0  0  0  0  0  0  0
  -17.9159   -5.7208   -3.6162 Cl  0  0  0  0  0  0  0  0  0  0  0  0
  -16.1574   -2.2922    0.9637 C   0  0  0  0  0  0  0  0  0  0  0  0
  -15.0034   -3.0012    0.7754 O   0  0  0  0  0  0  0  0  0  0  0  0
  -16.1664   -0.9050    0.8771 C   0  0  0  0  0  0  0  0  0  0  0  0
  -16.3014    1.5994    0.5351 H   0  0  0  0  0  0  0  0  0  0  0  0
  -18.0666    1.6376    0.3123 H   0  0  0  0  0  0  0  0  0  0  0  0
  -17.3734    1.7312    1.9495 H   0  0  0  0  0  0  0  0  0  0  0  0
  -19.4024   -0.2320    1.4891 H   0  0  0  0  0  0  0  0  0  0  0  0
  -19.4177   -2.7182    1.6508 H   0  0  0  0  0  0  0  0  0  0  0  0
  -16.5111   -4.8443    1.0723 H   0  0  0  0  0  0  0  0  0  0  0  0
  -19.0388   -7.1427    2.3063 H   0  0  0  0  0  0  0  0  0  0  0  0
  -17.2839   -6.8823    2.2985 H   0  0  0  0  0  0  0  0  0  0  0  0
  -18.6987   -6.4518   -0.2606 H   0  0  0  0  0  0  0  0  0  0  0  0
  -18.5852   -8.1413    0.3229 H   0  0  0  0  0  0  0  0  0  0  0  0
  -16.3120   -8.1400    0.2612 H   0  0  0  0  0  0  0  0  0  0  0  0
  -16.2032   -6.3387    0.2870 H   0  0  0  0  0  0  0  0  0  0  0  0
  -17.4298   -7.5291   -2.0793 H   0  0  0  0  0  0  0  0  0  0  0  0
  -13.5301   -7.7139   -3.8657 H   0  0  0  0  0  0  0  0  0  0  0  0
  -13.5196   -7.7702   -6.3157 H   0  0  0  0  0  0  0  0  0  0  0  0
  -15.4363   -6.9296   -7.6314 H   0  0  0  0  0  0  0  0  0  0  0  0
  -17.4004   -6.0136   -6.4177 H   0  0  0  0  0  0  0  0  0  0  0  0
  -14.7455   -2.9544   -0.1481 H   0  0  0  0  0  0  0  0  0  0  0  0
  -14.2420    1.4386   -0.2165 N   0  0  0  0  0  0  0  0  0  0  0  0
  -15.3626    0.7725    0.0697 C   0  0  0  0  0  0  0  0  0  0  0  0
  -16.5718    1.2798   -0.2352 N   0  0  0  0  0  0  0  0  0  0  0  0
  -16.6676    2.5942   -0.8974 C   0  0  0  0  0  0  0  0  0  0  0  0
  -15.5319    3.2566   -1.1825 C   0  0  0  0  0  0  0  0  0  0  0  0
  -14.2448    2.6311   -0.8146 C   0  0  0  0  0  0  0  0  0  0  0  0
  -13.2171    3.2343   -1.0737 O   0  0  0  0  0  0  0  0  0  0  0  0
  -15.2741   -0.4066    0.6649 N   0  0  0  0  0  0  0  0  0  0  0  0
  -13.3327    1.1019   -0.0098 H   0  0  0  0  0  0  0  0  0  0  0  0
  -17.6253    3.0143   -1.1481 H   0  0  0  0  0  0  0  0  0  0  0  0
  -15.5198    4.2147   -1.6618 H   0  0  0  0  0  0  0  0  0  0  0  0
  -14.3955   -0.8140    0.9057 H   0  0  0  0  0  0  0  0  0  0  0  0
  1  2  1  0
  2  3  2  0
  3  4  1  0
  4  5  2  0
  5  6  1  0
  6  7  1  0
  7  8  2  0
  7  9  1  0
  9 10  1  0
 10 11  1  0
 11 12  1  0
 12 13  1  0
 13 14  2  0
 13 15  1  0
 15 16  2  0
 16 17  1  0
 17 18  2  0
 18 19  1  0
 19 20  2  0
 20 21  1  0
  5 22  1  0
 22 23  1  0
 22 24  2  0
  2 24  1  0
 15 20  1  0
  1 25  1  0
  1 26  1  0
  1 27  1  0
  3 28  1  0
  4 29  1  0
  6 30  1  0
  9 31  1  0
  9 32  1  0
 10 33  1  0
 10 34  1  0
 11 35  1  0
 11 36  1  0
 12 37  1  0
 16 38  1  0
 17 39  1  0
 18 40  1  0
 19 41  1  0
 23 42  1  0
 43 44  1  0
 43 48  1  0
 43 51  1  0
 44 45  2  0
 44 50  1  0
 45 46  1  0
 46 47  2  0
 46 52  1  0
 47 48  1  0
 47 53  1  0
 48 49  2  0
 50 54  1  0
 24 50  1  0
M  END
>  <CHROM.1>  (106) 
-7.85494018,-70.51786892,93.79447857,-159.45420467,156.49061714,-134.70582506
-2.59576437,-16.82262164,-4.79801655,-1.09588681,-2.13605727,-1.13911128
-2.79822442

>  <Name>  (106) 
design_2

>  <RI>  (106) 
18134700.000000

>  <Rbt.Current_Directory>  (106) 
/pylon5/mc5pksp/smaltr/gateway_workdirs/PROCESS_93251df5-8da2-4fa9-b874-71853b29d1ad

>  <Rbt.Executable>  (106) 
rbdock ($Id: //depot/dev/client3/rdock/2013.1/src/exe/rbdock.cxx#4 $)

>  <Rbt.Library>  (106) 
libRbt.so (2013.1, Build901 2013/11/27)

>  <Rbt.Parameter_File>  (106) 
/home/smaltr/software/rDock_2013.1_src//data/scripts/dock.prm

>  <Rbt.Receptor>  (106) 
/pylon5/mc5pksp/smaltr/gateway_workdirs/PROCESS_93251df5-8da2-4fa9-b874-71853b29d1ad/output/SnD-Target-Sep02/cavity/pocket_docking.prm

>  <SCORE>  (106) 
-21.179000

>  <SCORE.INTER>  (106) 
-19.124800

>  <SCORE.INTER.CONST>  (106) 
1

>  <SCORE.INTER.POLAR>  (106) 
-1.342290

>  <SCORE.INTER.REPUL>  (106) 
0.027236

>  <SCORE.INTER.ROT>  (106) 
6

>  <SCORE.INTER.VDW>  (106) 
-26.097200

>  <SCORE.INTER.norm>  (106) 
-0.796868

>  <SCORE.INTRA>  (106) 
-2.054130

>  <SCORE.INTRA.DIHEDRAL>  (106) 
-1.438940

>  <SCORE.INTRA.DIHEDRAL.0>  (106) 
15.237700

>  <SCORE.INTRA.POLAR>  (106) 
0

>  <SCORE.INTRA.POLAR.0>  (106) 
0

>  <SCORE.INTRA.REPUL>  (106) 
0

>  <SCORE.INTRA.REPUL.0>  (106) 
0

>  <SCORE.INTRA.VDW>  (106) 
-1.334660

>  <SCORE.INTRA.VDW.0>  (106) 
0.589361

>  <SCORE.INTRA.norm>  (106) 
-0.085589

>  <SCORE.RESTR>  (106) 
0

>  <SCORE.RESTR.CAVITY>  (106) 
0

>  <SCORE.RESTR.norm>  (106) 
0

>  <SCORE.SYSTEM>  (106) 
0

>  <SCORE.SYSTEM.CONST>  (106) 
0

>  <SCORE.SYSTEM.DIHEDRAL>  (106) 
0

>  <SCORE.SYSTEM.norm>  (106) 
0

>  <SCORE.heavy>  (106) 
24

>  <SCORE.norm>  (106) 
-0.882457

>  <SMILES>  (106) 
Cc1ccc(NC(=O)CCCNC(=O)c2ccccc2Cl)c(O)c1

>  <Cycle>  (106) 
228

>  <MolWeight>  (106) 
346.814000

>  <LogP>  (106) 
3.502720

>  <QED>  (106) 
0.552985

>  <SAS>  (106) 
1.8040384432889596

$$$$
design_2
     RDKit          3D

 54 56  0  0  0  0  0  0  0  0999 V2000
  -17.2584    1.2936    0.9578 C   0  0  0  0  0  0  0  0  0  0  0  0
  -17.3021   -0.1742    1.0602 C   0  0  0  0  0  0  0  0  0  0  0  0
  -18.4853   -0.8019    1.3398 C   0  0  0  0  0  0  0  0  0  0  0  0
  -18.4810   -2.2070    1.4286 C   0  0  0  0  0  0  0  0  0  0  0  0
  -17.3474   -2.9617    1.2473 C   0  0  0  0  0  0  0  0  0  0  0  0
  -17.3581   -4.3631    1.3389 N   0  0  0  0  0  0  0  0  0  0  0  0
  -18.4355   -5.1617    1.7665 C   0  0  0  0  0  0  0  0  0  0  0  0
  -19.5126   -4.6639    2.1126 O   0  0  0  0  0  0  0  0  0  0  0  0
  -18.2169   -6.6536    1.7834 C   0  0  0  0  0  0  0  0  0  0  0  0
  -18.1475   -7.1444    0.3754 C   0  0  0  0  0  0  0  0  0  0  0  0
  -16.7397   -7.2049   -0.1003 C   0  0  0  0  0  0  0  0  0  0  0  0
  -16.6334   -7.2078   -1.5477 N   0  0  0  0  0  0  0  0  0  0  0  0
  -15.4904   -6.7912   -2.2592 C   0  0  0  0  0  0  0  0  0  0  0  0
  -14.4909   -6.3906   -1.6197 O   0  0  0  0  0  0  0  0  0  0  0  0
  -15.4769   -6.8287   -3.7369 C   0  0  0  0  0  0  0  0  0  0  0  0
  -14.3901   -7.3357   -4.4184 C   0  0  0  0  0  0  0  0  0  0  0  0
  -14.3888   -7.3654   -5.7973 C   0  0  0  0  0  0  0  0  0  0  0  0
  -15.4544   -6.8983   -6.5420 C   0  0  0  0  0  0  0  0  0  0  0  0
  -16.5419   -6.3910   -5.8622 C   0  0  0  0  0  0  0  0  0  0  0  0
  -16.5491   -6.3585   -4.4797 C   0  0  0  0  0  0  0  0  0  0  0  0
  -17.9159   -5.7208   -3.6162 Cl  0  0  0  0  0  0  0  0  0  0  0  0
  -16.1574   -2.2922    0.9637 C   0  0  0  0  0  0  0  0  0  0  0  0
  -15.0034   -3.0012    0.7754 O   0  0  0  0  0  0  0  0  0  0  0  0
  -16.1664   -0.9050    0.8771 C   0  0  0  0  0  0  0  0  0  0  0  0
  -18.0666    1.6376    0.3123 H   0  0  0  0  0  0  0  0  0  0  0  0
  -17.3734    1.7312    1.9495 H   0  0  0  0  0  0  0  0  0  0  0  0
  -19.4024   -0.2320    1.4891 H   0  0  0  0  0  0  0  0  0  0  0  0
  -19.4177   -2.7182    1.6508 H   0  0  0  0  0  0  0  0  0  0  0  0
  -16.5111   -4.8443    1.0723 H   0  0  0  0  0  0  0  0  0  0  0  0
  -19.0388   -7.1427    2.3063 H   0  0  0  0  0  0  0  0  0  0  0  0
  -17.2839   -6.8823    2.2985 H   0  0  0  0  0  0  0  0  0  0  0  0
  -18.6987   -6.4518   -0.2606 H   0  0  0  0  0  0  0  0  0  0  0  0
  -18.5852   -8.1413    0.3229 H   0  0  0  0  0  0  0  0  0  0  0  0
  -16.3120   -8.1400    0.2612 H   0  0  0  0  0  0  0  0  0  0  0  0
  -16.2032   -6.3387    0.2870 H   0  0  0  0  0  0  0  0  0  0  0  0
  -17.4298   -7.5291   -2.0793 H   0  0  0  0  0  0  0  0  0  0  0  0
  -13.5301   -7.7139   -3.8657 H   0  0  0  0  0  0  0  0  0  0  0  0
  -13.5196   -7.7702   -6.3157 H   0  0  0  0  0  0  0  0  0  0  0  0
  -15.4363   -6.9296   -7.6314 H   0  0  0  0  0  0  0  0  0  0  0  0
  -17.4004   -6.0136   -6.4177 H   0  0  0  0  0  0  0  0  0  0  0  0
  -14.7455   -2.9544   -0.1481 H   0  0  0  0  0  0  0  0  0  0  0  0
  -15.2346   -0.3846    0.6555 H   0  0  0  0  0  0  0  0  0  0  0  0
  -13.9006    1.8669    0.5390 N   0  0  0  0  0  0  0  0  0  0  0  0
  -13.8721    2.4409   -0.6817 C   0  0  0  0  0  0  0  0  0  0  0  0
  -15.0592    2.6044   -1.3182 N   0  0  0  0  0  0  0  0  0  0  0  0
  -16.2409    2.2267   -0.7929 C   0  0  0  0  0  0  0  0  0  0  0  0
  -16.3087    1.5971    0.5383 C   0  0  0  0  0  0  0  0  0  0  0  0
  -15.1492    1.4220    1.1902 C   0  0  0  0  0  0  0  0  0  0  0  0
  -12.8124    2.7903   -1.1754 O   0  0  0  0  0  0  0  0  0  0  0  0
  -17.3392    2.4446   -1.5226 N   0  0  0  0  0  0  0  0  0  0  0  0
  -12.9993    1.7731    0.9538 H   0  0  0  0  0  0  0  0  0  0  0  0
  -17.2361    2.8748   -2.4187 H   0  0  0  0  0  0  0  0  0  0  0  0
  -18.2485    2.1901   -1.1977 H   0  0  0  0  0  0  0  0  0  0  0  0
  -15.1377    0.9675    2.1656 H   0  0  0  0  0  0  0  0  0  0  0  0
  1  2  1  0
  2  3  2  0
  3  4  1  0
  4  5  2  0
  5  6  1  0
  6  7  1  0
  7  8  2  0
  7  9  1  0
  9 10  1  0
 10 11  1  0
 11 12  1  0
 12 13  1  0
 13 14  2  0
 13 15  1  0
 15 16  2  0
 16 17  1  0
 17 18  2  0
 18 19  1  0
 19 20  2  0
 20 21  1  0
  5 22  1  0
 22 23  1  0
 22 24  2  0
  2 24  1  0
 15 20  1  0
  1 25  1  0
  1 26  1  0
  3 27  1  0
  4 28  1  0
  6 29  1  0
  9 30  1  0
  9 31  1  0
 10 32  1  0
 10 33  1  0
 11 34  1  0
 11 35  1  0
 12 36  1  0
 16 37  1  0
 17 38  1  0
 18 39  1  0
 19 40  1  0
 23 41  1  0
 24 42  1  0
 43 44  1  0
 43 51  1  0
 44 49  2  0
 44 45  1  0
 45 46  2  0
 46 47  1  0
 46 50  1  0
 47 48  2  0
 43 48  1  0
 48 54  1  0
 50 52  1  0
 50 53  1  0
  1 47  1  0
M  END
>  <CHROM.1>  (107) 
-7.85494018,-70.51786892,93.79447857,-159.45420467,156.49061714,-134.70582506
-2.59576437,-16.82262164,-4.79801655,-1.09588681,-2.13605727,-1.13911128
-2.79822442

>  <Name>  (107) 
design_2

>  <RI>  (107) 
18134700.000000

>  <Rbt.Current_Directory>  (107) 
/pylon5/mc5pksp/smaltr/gateway_workdirs/PROCESS_93251df5-8da2-4fa9-b874-71853b29d1ad

>  <Rbt.Executable>  (107) 
rbdock ($Id: //depot/dev/client3/rdock/2013.1/src/exe/rbdock.cxx#4 $)

>  <Rbt.Library>  (107) 
libRbt.so (2013.1, Build901 2013/11/27)

>  <Rbt.Parameter_File>  (107) 
/home/smaltr/software/rDock_2013.1_src//data/scripts/dock.prm

>  <Rbt.Receptor>  (107) 
/pylon5/mc5pksp/smaltr/gateway_workdirs/PROCESS_93251df5-8da2-4fa9-b874-71853b29d1ad/output/SnD-Target-Sep02/cavity/pocket_docking.prm

>  <SCORE>  (107) 
-21.179000

>  <SCORE.INTER>  (107) 
-19.124800

>  <SCORE.INTER.CONST>  (107) 
1

>  <SCORE.INTER.POLAR>  (107) 
-1.342290

>  <SCORE.INTER.REPUL>  (107) 
0.027236

>  <SCORE.INTER.ROT>  (107) 
6

>  <SCORE.INTER.VDW>  (107) 
-26.097200

>  <SCORE.INTER.norm>  (107) 
-0.796868

>  <SCORE.INTRA>  (107) 
-2.054130

>  <SCORE.INTRA.DIHEDRAL>  (107) 
-1.438940

>  <SCORE.INTRA.DIHEDRAL.0>  (107) 
15.237700

>  <SCORE.INTRA.POLAR>  (107) 
0

>  <SCORE.INTRA.POLAR.0>  (107) 
0

>  <SCORE.INTRA.REPUL>  (107) 
0

>  <SCORE.INTRA.REPUL.0>  (107) 
0

>  <SCORE.INTRA.VDW>  (107) 
-1.334660

>  <SCORE.INTRA.VDW.0>  (107) 
0.589361

>  <SCORE.INTRA.norm>  (107) 
-0.085589

>  <SCORE.RESTR>  (107) 
0

>  <SCORE.RESTR.CAVITY>  (107) 
0

>  <SCORE.RESTR.norm>  (107) 
0

>  <SCORE.SYSTEM>  (107) 
0

>  <SCORE.SYSTEM.CONST>  (107) 
0

>  <SCORE.SYSTEM.DIHEDRAL>  (107) 
0

>  <SCORE.SYSTEM.norm>  (107) 
0

>  <SCORE.heavy>  (107) 
24

>  <SCORE.norm>  (107) 
-0.882457

>  <SMILES>  (107) 
Cc1ccc(NC(=O)CCCNC(=O)c2ccccc2Cl)c(O)c1

>  <Cycle>  (107) 
228

>  <MolWeight>  (107) 
346.814000

>  <LogP>  (107) 
3.502720

>  <QED>  (107) 
0.552985

>  <SAS>  (107) 
1

$$$$
design_2
     RDKit          3D

 54 56  0  0  0  0  0  0  0  0999 V2000
  -17.2584    1.2936    0.9578 C   0  0  0  0  0  0  0  0  0  0  0  0
  -17.3021   -0.1742    1.0602 C   0  0  0  0  0  0  0  0  0  0  0  0
  -18.4853   -0.8019    1.3398 C   0  0  0  0  0  0  0  0  0  0  0  0
  -18.4810   -2.2070    1.4286 C   0  0  0  0  0  0  0  0  0  0  0  0
  -17.3474   -2.9617    1.2473 C   0  0  0  0  0  0  0  0  0  0  0  0
  -17.3581   -4.3631    1.3389 N   0  0  0  0  0  0  0  0  0  0  0  0
  -18.4355   -5.1617    1.7665 C   0  0  0  0  0  0  0  0  0  0  0  0
  -19.5126   -4.6639    2.1126 O   0  0  0  0  0  0  0  0  0  0  0  0
  -18.2169   -6.6536    1.7834 C   0  0  0  0  0  0  0  0  0  0  0  0
  -18.1475   -7.1444    0.3754 C   0  0  0  0  0  0  0  0  0  0  0  0
  -16.7397   -7.2049   -0.1003 C   0  0  0  0  0  0  0  0  0  0  0  0
  -16.6334   -7.2078   -1.5477 N   0  0  0  0  0  0  0  0  0  0  0  0
  -15.4904   -6.7912   -2.2592 C   0  0  0  0  0  0  0  0  0  0  0  0
  -14.4909   -6.3906   -1.6197 O   0  0  0  0  0  0  0  0  0  0  0  0
  -15.4769   -6.8287   -3.7369 C   0  0  0  0  0  0  0  0  0  0  0  0
  -14.3901   -7.3357   -4.4184 C   0  0  0  0  0  0  0  0  0  0  0  0
  -14.3888   -7.3654   -5.7973 C   0  0  0  0  0  0  0  0  0  0  0  0
  -15.4544   -6.8983   -6.5420 C   0  0  0  0  0  0  0  0  0  0  0  0
  -16.5419   -6.3910   -5.8622 C   0  0  0  0  0  0  0  0  0  0  0  0
  -16.5491   -6.3585   -4.4797 C   0  0  0  0  0  0  0  0  0  0  0  0
  -17.9159   -5.7208   -3.6162 Cl  0  0  0  0  0  0  0  0  0  0  0  0
  -16.1574   -2.2922    0.9637 C   0  0  0  0  0  0  0  0  0  0  0  0
  -15.0034   -3.0012    0.7754 O   0  0  0  0  0  0  0  0  0  0  0  0
  -16.1664   -0.9050    0.8771 C   0  0  0  0  0  0  0  0  0  0  0  0
  -18.0666    1.6376    0.3123 H   0  0  0  0  0  0  0  0  0  0  0  0
  -17.3734    1.7312    1.9495 H   0  0  0  0  0  0  0  0  0  0  0  0
  -19.4024   -0.2320    1.4891 H   0  0  0  0  0  0  0  0  0  0  0  0
  -19.4177   -2.7182    1.6508 H   0  0  0  0  0  0  0  0  0  0  0  0
  -16.5111   -4.8443    1.0723 H   0  0  0  0  0  0  0  0  0  0  0  0
  -19.0388   -7.1427    2.3063 H   0  0  0  0  0  0  0  0  0  0  0  0
  -17.2839   -6.8823    2.2985 H   0  0  0  0  0  0  0  0  0  0  0  0
  -18.6987   -6.4518   -0.2606 H   0  0  0  0  0  0  0  0  0  0  0  0
  -18.5852   -8.1413    0.3229 H   0  0  0  0  0  0  0  0  0  0  0  0
  -16.3120   -8.1400    0.2612 H   0  0  0  0  0  0  0  0  0  0  0  0
  -16.2032   -6.3387    0.2870 H   0  0  0  0  0  0  0  0  0  0  0  0
  -17.4298   -7.5291   -2.0793 H   0  0  0  0  0  0  0  0  0  0  0  0
  -13.5301   -7.7139   -3.8657 H   0  0  0  0  0  0  0  0  0  0  0  0
  -13.5196   -7.7702   -6.3157 H   0  0  0  0  0  0  0  0  0  0  0  0
  -15.4363   -6.9296   -7.6314 H   0  0  0  0  0  0  0  0  0  0  0  0
  -17.4004   -6.0136   -6.4177 H   0  0  0  0  0  0  0  0  0  0  0  0
  -14.7455   -2.9544   -0.1481 H   0  0  0  0  0  0  0  0  0  0  0  0
  -15.2346   -0.3846    0.6555 H   0  0  0  0  0  0  0  0  0  0  0  0
  -16.0298    3.0121    0.2174 N   0  0  0  0  0  0  0  0  0  0  0  0
  -14.8594    3.4313   -0.3067 C   0  0  0  0  0  0  0  0  0  0  0  0
  -13.9112    2.4892   -0.5396 N   0  0  0  0  0  0  0  0  0  0  0  0
  -14.0860    1.1796   -0.2763 C   0  0  0  0  0  0  0  0  0  0  0  0
  -15.3521    0.6870    0.2961 C   0  0  0  0  0  0  0  0  0  0  0  0
  -16.3074    1.5975    0.5378 C   0  0  0  0  0  0  0  0  0  0  0  0
  -14.6808    4.6130   -0.5527 O   0  0  0  0  0  0  0  0  0  0  0  0
  -13.0727    0.3532   -0.5528 N   0  0  0  0  0  0  0  0  0  0  0  0
  -16.6838    3.7493    0.3665 H   0  0  0  0  0  0  0  0  0  0  0  0
  -12.2367    0.7402   -0.9399 H   0  0  0  0  0  0  0  0  0  0  0  0
  -13.1307   -0.6292   -0.3832 H   0  0  0  0  0  0  0  0  0  0  0  0
  -15.4890   -0.3566    0.5061 H   0  0  0  0  0  0  0  0  0  0  0  0
  1  2  1  0
  2  3  2  0
  3  4  1  0
  4  5  2  0
  5  6  1  0
  6  7  1  0
  7  8  2  0
  7  9  1  0
  9 10  1  0
 10 11  1  0
 11 12  1  0
 12 13  1  0
 13 14  2  0
 13 15  1  0
 15 16  2  0
 16 17  1  0
 17 18  2  0
 18 19  1  0
 19 20  2  0
 20 21  1  0
  5 22  1  0
 22 23  1  0
 22 24  2  0
  2 24  1  0
 15 20  1  0
  1 25  1  0
  1 26  1  0
  3 27  1  0
  4 28  1  0
  6 29  1  0
  9 30  1  0
  9 31  1  0
 10 32  1  0
 10 33  1  0
 11 34  1  0
 11 35  1  0
 12 36  1  0
 16 37  1  0
 17 38  1  0
 18 39  1  0
 19 40  1  0
 23 41  1  0
 24 42  1  0
 43 44  1  0
 43 51  1  0
 44 49  2  0
 44 45  1  0
 45 46  2  0
 46 47  1  0
 46 50  1  0
 47 48  2  0
 47 54  1  0
 43 48  1  0
 50 52  1  0
 50 53  1  0
  1 48  1  0
M  END
>  <CHROM.1>  (108) 
-7.85494018,-70.51786892,93.79447857,-159.45420467,156.49061714,-134.70582506
-2.59576437,-16.82262164,-4.79801655,-1.09588681,-2.13605727,-1.13911128
-2.79822442

>  <Name>  (108) 
design_2

>  <RI>  (108) 
18134700.000000

>  <Rbt.Current_Directory>  (108) 
/pylon5/mc5pksp/smaltr/gateway_workdirs/PROCESS_93251df5-8da2-4fa9-b874-71853b29d1ad

>  <Rbt.Executable>  (108) 
rbdock ($Id: //depot/dev/client3/rdock/2013.1/src/exe/rbdock.cxx#4 $)

>  <Rbt.Library>  (108) 
libRbt.so (2013.1, Build901 2013/11/27)

>  <Rbt.Parameter_File>  (108) 
/home/smaltr/software/rDock_2013.1_src//data/scripts/dock.prm

>  <Rbt.Receptor>  (108) 
/pylon5/mc5pksp/smaltr/gateway_workdirs/PROCESS_93251df5-8da2-4fa9-b874-71853b29d1ad/output/SnD-Target-Sep02/cavity/pocket_docking.prm

>  <SCORE>  (108) 
-21.179000

>  <SCORE.INTER>  (108) 
-19.124800

>  <SCORE.INTER.CONST>  (108) 
1

>  <SCORE.INTER.POLAR>  (108) 
-1.342290

>  <SCORE.INTER.REPUL>  (108) 
0.027236

>  <SCORE.INTER.ROT>  (108) 
6

>  <SCORE.INTER.VDW>  (108) 
-26.097200

>  <SCORE.INTER.norm>  (108) 
-0.796868

>  <SCORE.INTRA>  (108) 
-2.054130

>  <SCORE.INTRA.DIHEDRAL>  (108) 
-1.438940

>  <SCORE.INTRA.DIHEDRAL.0>  (108) 
15.237700

>  <SCORE.INTRA.POLAR>  (108) 
0

>  <SCORE.INTRA.POLAR.0>  (108) 
0

>  <SCORE.INTRA.REPUL>  (108) 
0

>  <SCORE.INTRA.REPUL.0>  (108) 
0

>  <SCORE.INTRA.VDW>  (108) 
-1.334660

>  <SCORE.INTRA.VDW.0>  (108) 
0.589361

>  <SCORE.INTRA.norm>  (108) 
-0.085589

>  <SCORE.RESTR>  (108) 
0

>  <SCORE.RESTR.CAVITY>  (108) 
0

>  <SCORE.RESTR.norm>  (108) 
0

>  <SCORE.SYSTEM>  (108) 
0

>  <SCORE.SYSTEM.CONST>  (108) 
0

>  <SCORE.SYSTEM.DIHEDRAL>  (108) 
0

>  <SCORE.SYSTEM.norm>  (108) 
0

>  <SCORE.heavy>  (108) 
24

>  <SCORE.norm>  (108) 
-0.882457

>  <SMILES>  (108) 
Cc1ccc(NC(=O)CCCNC(=O)c2ccccc2Cl)c(O)c1

>  <Cycle>  (108) 
228

>  <MolWeight>  (108) 
346.814000

>  <LogP>  (108) 
3.502720

>  <QED>  (108) 
0.552985

>  <SAS>  (108) 
1.9854087065954387

$$$$
design_2
     RDKit          3D

 55 57  0  0  0  0  0  0  0  0999 V2000
  -17.2584    1.2936    0.9578 C   0  0  0  0  0  0  0  0  0  0  0  0
  -17.3021   -0.1742    1.0602 C   0  0  0  0  0  0  0  0  0  0  0  0
  -18.4853   -0.8019    1.3398 C   0  0  0  0  0  0  0  0  0  0  0  0
  -18.4810   -2.2070    1.4286 C   0  0  0  0  0  0  0  0  0  0  0  0
  -17.3474   -2.9617    1.2473 C   0  0  0  0  0  0  0  0  0  0  0  0
  -17.3581   -4.3631    1.3389 N   0  0  0  0  0  0  0  0  0  0  0  0
  -18.4355   -5.1617    1.7665 C   0  0  0  0  0  0  0  0  0  0  0  0
  -19.5126   -4.6639    2.1126 O   0  0  0  0  0  0  0  0  0  0  0  0
  -18.2169   -6.6536    1.7834 C   0  0  0  0  0  0  0  0  0  0  0  0
  -18.1475   -7.1444    0.3754 C   0  0  0  0  0  0  0  0  0  0  0  0
  -16.7397   -7.2049   -0.1003 C   0  0  0  0  0  0  0  0  0  0  0  0
  -16.6334   -7.2078   -1.5477 N   0  0  0  0  0  0  0  0  0  0  0  0
  -15.4904   -6.7912   -2.2592 C   0  0  0  0  0  0  0  0  0  0  0  0
  -14.4909   -6.3906   -1.6197 O   0  0  0  0  0  0  0  0  0  0  0  0
  -15.4769   -6.8287   -3.7369 C   0  0  0  0  0  0  0  0  0  0  0  0
  -14.3901   -7.3357   -4.4184 C   0  0  0  0  0  0  0  0  0  0  0  0
  -14.3888   -7.3654   -5.7973 C   0  0  0  0  0  0  0  0  0  0  0  0
  -15.4544   -6.8983   -6.5420 C   0  0  0  0  0  0  0  0  0  0  0  0
  -16.5419   -6.3910   -5.8622 C   0  0  0  0  0  0  0  0  0  0  0  0
  -16.5491   -6.3585   -4.4797 C   0  0  0  0  0  0  0  0  0  0  0  0
  -17.9159   -5.7208   -3.6162 Cl  0  0  0  0  0  0  0  0  0  0  0  0
  -16.1574   -2.2922    0.9637 C   0  0  0  0  0  0  0  0  0  0  0  0
  -15.0034   -3.0012    0.7754 O   0  0  0  0  0  0  0  0  0  0  0  0
  -16.1664   -0.9050    0.8771 C   0  0  0  0  0  0  0  0  0  0  0  0
  -16.3014    1.5994    0.5351 H   0  0  0  0  0  0  0  0  0  0  0  0
  -18.0666    1.6376    0.3123 H   0  0  0  0  0  0  0  0  0  0  0  0
  -17.3734    1.7312    1.9495 H   0  0  0  0  0  0  0  0  0  0  0  0
  -19.4024   -0.2320    1.4891 H   0  0  0  0  0  0  0  0  0  0  0  0
  -19.4177   -2.7182    1.6508 H   0  0  0  0  0  0  0  0  0  0  0  0
  -16.5111   -4.8443    1.0723 H   0  0  0  0  0  0  0  0  0  0  0  0
  -19.0388   -7.1427    2.3063 H   0  0  0  0  0  0  0  0  0  0  0  0
  -17.2839   -6.8823    2.2985 H   0  0  0  0  0  0  0  0  0  0  0  0
  -18.6987   -6.4518   -0.2606 H   0  0  0  0  0  0  0  0  0  0  0  0
  -18.5852   -8.1413    0.3229 H   0  0  0  0  0  0  0  0  0  0  0  0
  -16.3120   -8.1400    0.2612 H   0  0  0  0  0  0  0  0  0  0  0  0
  -16.2032   -6.3387    0.2870 H   0  0  0  0  0  0  0  0  0  0  0  0
  -17.4298   -7.5291   -2.0793 H   0  0  0  0  0  0  0  0  0  0  0  0
  -13.5301   -7.7139   -3.8657 H   0  0  0  0  0  0  0  0  0  0  0  0
  -13.5196   -7.7702   -6.3157 H   0  0  0  0  0  0  0  0  0  0  0  0
  -17.4004   -6.0136   -6.4177 H   0  0  0  0  0  0  0  0  0  0  0  0
  -14.7455   -2.9544   -0.1481 H   0  0  0  0  0  0  0  0  0  0  0  0
  -15.2346   -0.3846    0.6555 H   0  0  0  0  0  0  0  0  0  0  0  0
  -15.3993   -7.0262  -10.3449 N   0  0  0  0  0  0  0  0  0  0  0  0
  -15.7849   -8.0142   -9.5685 C   0  0  0  0  0  0  0  0  0  0  0  0
  -15.8298   -8.0400   -8.2492 N   0  0  0  0  0  0  0  0  0  0  0  0
  -15.4364   -6.9295   -7.6276 C   0  0  0  0  0  0  0  0  0  0  0  0
  -15.0080   -5.8232   -8.3353 C   0  0  0  0  0  0  0  0  0  0  0  0
  -15.0153   -5.9432   -9.7079 C   0  0  0  0  0  0  0  0  0  0  0  0
  -14.6215   -4.9329  -10.4834 N   0  0  0  0  0  0  0  0  0  0  0  0
  -16.1751   -9.1127  -10.1811 N   0  0  0  0  0  0  0  0  0  0  0  0
  -14.6860   -4.9170   -7.8536 H   0  0  0  0  0  0  0  0  0  0  0  0
  -14.6584   -5.1052  -11.4653 H   0  0  0  0  0  0  0  0  0  0  0  0
  -14.3108   -4.0646  -10.1122 H   0  0  0  0  0  0  0  0  0  0  0  0
  -16.4685   -9.8662   -9.6060 H   0  0  0  0  0  0  0  0  0  0  0  0
  -16.1464   -9.1082  -11.1734 H   0  0  0  0  0  0  0  0  0  0  0  0
  1  2  1  0
  2  3  2  0
  3  4  1  0
  4  5  2  0
  5  6  1  0
  6  7  1  0
  7  8  2  0
  7  9  1  0
  9 10  1  0
 10 11  1  0
 11 12  1  0
 12 13  1  0
 13 14  2  0
 13 15  1  0
 15 16  2  0
 16 17  1  0
 17 18  2  0
 18 19  1  0
 19 20  2  0
 20 21  1  0
  5 22  1  0
 22 23  1  0
 22 24  2  0
  2 24  1  0
 15 20  1  0
  1 25  1  0
  1 26  1  0
  1 27  1  0
  3 28  1  0
  4 29  1  0
  6 30  1  0
  9 31  1  0
  9 32  1  0
 10 33  1  0
 10 34  1  0
 11 35  1  0
 11 36  1  0
 12 37  1  0
 16 38  1  0
 17 39  1  0
 19 40  1  0
 23 41  1  0
 24 42  1  0
 43 44  2  0
 43 48  1  0
 44 45  1  0
 44 50  1  0
 45 46  2  0
 46 47  1  0
 47 48  2  0
 47 51  1  0
 48 49  1  0
 49 52  1  0
 49 53  1  0
 50 54  1  0
 50 55  1  0
 18 46  1  0
M  END
>  <CHROM.1>  (109) 
-7.85494018,-70.51786892,93.79447857,-159.45420467,156.49061714,-134.70582506
-2.59576437,-16.82262164,-4.79801655,-1.09588681,-2.13605727,-1.13911128
-2.79822442

>  <Name>  (109) 
design_2

>  <RI>  (109) 
18134700.000000

>  <Rbt.Current_Directory>  (109) 
/pylon5/mc5pksp/smaltr/gateway_workdirs/PROCESS_93251df5-8da2-4fa9-b874-71853b29d1ad

>  <Rbt.Executable>  (109) 
rbdock ($Id: //depot/dev/client3/rdock/2013.1/src/exe/rbdock.cxx#4 $)

>  <Rbt.Library>  (109) 
libRbt.so (2013.1, Build901 2013/11/27)

>  <Rbt.Parameter_File>  (109) 
/home/smaltr/software/rDock_2013.1_src//data/scripts/dock.prm

>  <Rbt.Receptor>  (109) 
/pylon5/mc5pksp/smaltr/gateway_workdirs/PROCESS_93251df5-8da2-4fa9-b874-71853b29d1ad/output/SnD-Target-Sep02/cavity/pocket_docking.prm

>  <SCORE>  (109) 
-21.179000

>  <SCORE.INTER>  (109) 
-19.124800

>  <SCORE.INTER.CONST>  (109) 
1

>  <SCORE.INTER.POLAR>  (109) 
-1.342290

>  <SCORE.INTER.REPUL>  (109) 
0.027236

>  <SCORE.INTER.ROT>  (109) 
6

>  <SCORE.INTER.VDW>  (109) 
-26.097200

>  <SCORE.INTER.norm>  (109) 
-0.796868

>  <SCORE.INTRA>  (109) 
-2.054130

>  <SCORE.INTRA.DIHEDRAL>  (109) 
-1.438940

>  <SCORE.INTRA.DIHEDRAL.0>  (109) 
15.237700

>  <SCORE.INTRA.POLAR>  (109) 
0

>  <SCORE.INTRA.POLAR.0>  (109) 
0

>  <SCORE.INTRA.REPUL>  (109) 
0

>  <SCORE.INTRA.REPUL.0>  (109) 
0

>  <SCORE.INTRA.VDW>  (109) 
-1.334660

>  <SCORE.INTRA.VDW.0>  (109) 
0.589361

>  <SCORE.INTRA.norm>  (109) 
-0.085589

>  <SCORE.RESTR>  (109) 
0

>  <SCORE.RESTR.CAVITY>  (109) 
0

>  <SCORE.RESTR.norm>  (109) 
0

>  <SCORE.SYSTEM>  (109) 
0

>  <SCORE.SYSTEM.CONST>  (109) 
0

>  <SCORE.SYSTEM.DIHEDRAL>  (109) 
0

>  <SCORE.SYSTEM.norm>  (109) 
0

>  <SCORE.heavy>  (109) 
24

>  <SCORE.norm>  (109) 
-0.882457

>  <SMILES>  (109) 
Cc1ccc(NC(=O)CCCNC(=O)c2ccccc2Cl)c(O)c1

>  <Cycle>  (109) 
228

>  <MolWeight>  (109) 
346.814000

>  <LogP>  (109) 
3.502720

>  <QED>  (109) 
0.552985

>  <SAS>  (109) 
2.1886079216756897

$$$$
design_2
     RDKit          3D

 55 57  0  0  0  0  0  0  0  0999 V2000
  -17.2584    1.2936    0.9578 C   0  0  0  0  0  0  0  0  0  0  0  0
  -17.3021   -0.1742    1.0602 C   0  0  0  0  0  0  0  0  0  0  0  0
  -18.4853   -0.8019    1.3398 C   0  0  0  0  0  0  0  0  0  0  0  0
  -18.4810   -2.2070    1.4286 C   0  0  0  0  0  0  0  0  0  0  0  0
  -17.3474   -2.9617    1.2473 C   0  0  0  0  0  0  0  0  0  0  0  0
  -17.3581   -4.3631    1.3389 N   0  0  0  0  0  0  0  0  0  0  0  0
  -18.4355   -5.1617    1.7665 C   0  0  0  0  0  0  0  0  0  0  0  0
  -19.5126   -4.6639    2.1126 O   0  0  0  0  0  0  0  0  0  0  0  0
  -18.2169   -6.6536    1.7834 C   0  0  0  0  0  0  0  0  0  0  0  0
  -18.1475   -7.1444    0.3754 C   0  0  0  0  0  0  0  0  0  0  0  0
  -16.7397   -7.2049   -0.1003 C   0  0  0  0  0  0  0  0  0  0  0  0
  -16.6334   -7.2078   -1.5477 N   0  0  0  0  0  0  0  0  0  0  0  0
  -15.4904   -6.7912   -2.2592 C   0  0  0  0  0  0  0  0  0  0  0  0
  -14.4909   -6.3906   -1.6197 O   0  0  0  0  0  0  0  0  0  0  0  0
  -15.4769   -6.8287   -3.7369 C   0  0  0  0  0  0  0  0  0  0  0  0
  -14.3901   -7.3357   -4.4184 C   0  0  0  0  0  0  0  0  0  0  0  0
  -14.3888   -7.3654   -5.7973 C   0  0  0  0  0  0  0  0  0  0  0  0
  -15.4544   -6.8983   -6.5420 C   0  0  0  0  0  0  0  0  0  0  0  0
  -16.5419   -6.3910   -5.8622 C   0  0  0  0  0  0  0  0  0  0  0  0
  -16.5491   -6.3585   -4.4797 C   0  0  0  0  0  0  0  0  0  0  0  0
  -17.9159   -5.7208   -3.6162 Cl  0  0  0  0  0  0  0  0  0  0  0  0
  -16.1574   -2.2922    0.9637 C   0  0  0  0  0  0  0  0  0  0  0  0
  -15.0034   -3.0012    0.7754 O   0  0  0  0  0  0  0  0  0  0  0  0
  -16.1664   -0.9050    0.8771 C   0  0  0  0  0  0  0  0  0  0  0  0
  -16.3014    1.5994    0.5351 H   0  0  0  0  0  0  0  0  0  0  0  0
  -18.0666    1.6376    0.3123 H   0  0  0  0  0  0  0  0  0  0  0  0
  -17.3734    1.7312    1.9495 H   0  0  0  0  0  0  0  0  0  0  0  0
  -19.4024   -0.2320    1.4891 H   0  0  0  0  0  0  0  0  0  0  0  0
  -19.4177   -2.7182    1.6508 H   0  0  0  0  0  0  0  0  0  0  0  0
  -16.5111   -4.8443    1.0723 H   0  0  0  0  0  0  0  0  0  0  0  0
  -19.0388   -7.1427    2.3063 H   0  0  0  0  0  0  0  0  0  0  0  0
  -17.2839   -6.8823    2.2985 H   0  0  0  0  0  0  0  0  0  0  0  0
  -18.6987   -6.4518   -0.2606 H   0  0  0  0  0  0  0  0  0  0  0  0
  -18.5852   -8.1413    0.3229 H   0  0  0  0  0  0  0  0  0  0  0  0
  -16.3120   -8.1400    0.2612 H   0  0  0  0  0  0  0  0  0  0  0  0
  -16.2032   -6.3387    0.2870 H   0  0  0  0  0  0  0  0  0  0  0  0
  -17.4298   -7.5291   -2.0793 H   0  0  0  0  0  0  0  0  0  0  0  0
  -13.5301   -7.7139   -3.8657 H   0  0  0  0  0  0  0  0  0  0  0  0
  -15.4363   -6.9296   -7.6314 H   0  0  0  0  0  0  0  0  0  0  0  0
  -17.4004   -6.0136   -6.4177 H   0  0  0  0  0  0  0  0  0  0  0  0
  -14.7455   -2.9544   -0.1481 H   0  0  0  0  0  0  0  0  0  0  0  0
  -15.2346   -0.3846    0.6555 H   0  0  0  0  0  0  0  0  0  0  0  0
  -11.3601   -8.7975   -7.6022 N   0  0  0  0  0  0  0  0  0  0  0  0
  -12.2372   -9.5100   -6.9310 C   0  0  0  0  0  0  0  0  0  0  0  0
  -13.3057   -9.0827   -6.2838 N   0  0  0  0  0  0  0  0  0  0  0  0
  -13.5226   -7.7688   -6.3139 C   0  0  0  0  0  0  0  0  0  0  0  0
  -12.6701   -6.9150   -6.9865 C   0  0  0  0  0  0  0  0  0  0  0  0
  -11.5957   -7.5050   -7.6159 C   0  0  0  0  0  0  0  0  0  0  0  0
  -10.7136   -6.7700   -8.2932 N   0  0  0  0  0  0  0  0  0  0  0  0
  -12.0250  -10.8094   -6.9008 N   0  0  0  0  0  0  0  0  0  0  0  0
  -12.8263   -5.8514   -7.0232 H   0  0  0  0  0  0  0  0  0  0  0  0
   -9.9670   -7.2776   -8.7175 H   0  0  0  0  0  0  0  0  0  0  0  0
  -10.7908   -5.7820   -8.3724 H   0  0  0  0  0  0  0  0  0  0  0  0
  -12.6802  -11.3586   -6.3970 H   0  0  0  0  0  0  0  0  0  0  0  0
  -11.2249  -11.1454   -7.3827 H   0  0  0  0  0  0  0  0  0  0  0  0
  1  2  1  0
  2  3  2  0
  3  4  1  0
  4  5  2  0
  5  6  1  0
  6  7  1  0
  7  8  2  0
  7  9  1  0
  9 10  1  0
 10 11  1  0
 11 12  1  0
 12 13  1  0
 13 14  2  0
 13 15  1  0
 15 16  2  0
 16 17  1  0
 17 18  2  0
 18 19  1  0
 19 20  2  0
 20 21  1  0
  5 22  1  0
 22 23  1  0
 22 24  2  0
  2 24  1  0
 15 20  1  0
  1 25  1  0
  1 26  1  0
  1 27  1  0
  3 28  1  0
  4 29  1  0
  6 30  1  0
  9 31  1  0
  9 32  1  0
 10 33  1  0
 10 34  1  0
 11 35  1  0
 11 36  1  0
 12 37  1  0
 16 38  1  0
 18 39  1  0
 19 40  1  0
 23 41  1  0
 24 42  1  0
 43 44  2  0
 43 48  1  0
 44 45  1  0
 44 50  1  0
 45 46  2  0
 46 47  1  0
 47 48  2  0
 47 51  1  0
 48 49  1  0
 49 52  1  0
 49 53  1  0
 50 54  1  0
 50 55  1  0
 17 46  1  0
M  END
>  <CHROM.1>  (110) 
-7.85494018,-70.51786892,93.79447857,-159.45420467,156.49061714,-134.70582506
-2.59576437,-16.82262164,-4.79801655,-1.09588681,-2.13605727,-1.13911128
-2.79822442

>  <Name>  (110) 
design_2

>  <RI>  (110) 
18134700.000000

>  <Rbt.Current_Directory>  (110) 
/pylon5/mc5pksp/smaltr/gateway_workdirs/PROCESS_93251df5-8da2-4fa9-b874-71853b29d1ad

>  <Rbt.Executable>  (110) 
rbdock ($Id: //depot/dev/client3/rdock/2013.1/src/exe/rbdock.cxx#4 $)

>  <Rbt.Library>  (110) 
libRbt.so (2013.1, Build901 2013/11/27)

>  <Rbt.Parameter_File>  (110) 
/home/smaltr/software/rDock_2013.1_src//data/scripts/dock.prm

>  <Rbt.Receptor>  (110) 
/pylon5/mc5pksp/smaltr/gateway_workdirs/PROCESS_93251df5-8da2-4fa9-b874-71853b29d1ad/output/SnD-Target-Sep02/cavity/pocket_docking.prm

>  <SCORE>  (110) 
-21.179000

>  <SCORE.INTER>  (110) 
-19.124800

>  <SCORE.INTER.CONST>  (110) 
1

>  <SCORE.INTER.POLAR>  (110) 
-1.342290

>  <SCORE.INTER.REPUL>  (110) 
0.027236

>  <SCORE.INTER.ROT>  (110) 
6

>  <SCORE.INTER.VDW>  (110) 
-26.097200

>  <SCORE.INTER.norm>  (110) 
-0.796868

>  <SCORE.INTRA>  (110) 
-2.054130

>  <SCORE.INTRA.DIHEDRAL>  (110) 
-1.438940

>  <SCORE.INTRA.DIHEDRAL.0>  (110) 
15.237700

>  <SCORE.INTRA.POLAR>  (110) 
0

>  <SCORE.INTRA.POLAR.0>  (110) 
0

>  <SCORE.INTRA.REPUL>  (110) 
0

>  <SCORE.INTRA.REPUL.0>  (110) 
0

>  <SCORE.INTRA.VDW>  (110) 
-1.334660

>  <SCORE.INTRA.VDW.0>  (110) 
0.589361

>  <SCORE.INTRA.norm>  (110) 
-0.085589

>  <SCORE.RESTR>  (110) 
0

>  <SCORE.RESTR.CAVITY>  (110) 
0

>  <SCORE.RESTR.norm>  (110) 
0

>  <SCORE.SYSTEM>  (110) 
0

>  <SCORE.SYSTEM.CONST>  (110) 
0

>  <SCORE.SYSTEM.DIHEDRAL>  (110) 
0

>  <SCORE.SYSTEM.norm>  (110) 
0

>  <SCORE.heavy>  (110) 
24

>  <SCORE.norm>  (110) 
-0.882457

>  <SMILES>  (110) 
Cc1ccc(NC(=O)CCCNC(=O)c2ccccc2Cl)c(O)c1

>  <Cycle>  (110) 
228

>  <MolWeight>  (110) 
346.814000

>  <LogP>  (110) 
3.502720

>  <QED>  (110) 
0.552985

>  <SAS>  (110) 
2.1886079216756897

$$$$
design_2
     RDKit          3D

 55 57  0  0  0  0  0  0  0  0999 V2000
  -17.2584    1.2936    0.9578 C   0  0  0  0  0  0  0  0  0  0  0  0
  -17.3021   -0.1742    1.0602 C   0  0  0  0  0  0  0  0  0  0  0  0
  -18.4853   -0.8019    1.3398 C   0  0  0  0  0  0  0  0  0  0  0  0
  -18.4810   -2.2070    1.4286 C   0  0  0  0  0  0  0  0  0  0  0  0
  -17.3474   -2.9617    1.2473 C   0  0  0  0  0  0  0  0  0  0  0  0
  -17.3581   -4.3631    1.3389 N   0  0  0  0  0  0  0  0  0  0  0  0
  -18.4355   -5.1617    1.7665 C   0  0  0  0  0  0  0  0  0  0  0  0
  -19.5126   -4.6639    2.1126 O   0  0  0  0  0  0  0  0  0  0  0  0
  -18.2169   -6.6536    1.7834 C   0  0  0  0  0  0  0  0  0  0  0  0
  -18.1475   -7.1444    0.3754 C   0  0  0  0  0  0  0  0  0  0  0  0
  -16.7397   -7.2049   -0.1003 C   0  0  0  0  0  0  0  0  0  0  0  0
  -16.6334   -7.2078   -1.5477 N   0  0  0  0  0  0  0  0  0  0  0  0
  -15.4904   -6.7912   -2.2592 C   0  0  0  0  0  0  0  0  0  0  0  0
  -14.4909   -6.3906   -1.6197 O   0  0  0  0  0  0  0  0  0  0  0  0
  -15.4769   -6.8287   -3.7369 C   0  0  0  0  0  0  0  0  0  0  0  0
  -14.3901   -7.3357   -4.4184 C   0  0  0  0  0  0  0  0  0  0  0  0
  -14.3888   -7.3654   -5.7973 C   0  0  0  0  0  0  0  0  0  0  0  0
  -15.4544   -6.8983   -6.5420 C   0  0  0  0  0  0  0  0  0  0  0  0
  -16.5419   -6.3910   -5.8622 C   0  0  0  0  0  0  0  0  0  0  0  0
  -16.5491   -6.3585   -4.4797 C   0  0  0  0  0  0  0  0  0  0  0  0
  -17.9159   -5.7208   -3.6162 Cl  0  0  0  0  0  0  0  0  0  0  0  0
  -16.1574   -2.2922    0.9637 C   0  0  0  0  0  0  0  0  0  0  0  0
  -15.0034   -3.0012    0.7754 O   0  0  0  0  0  0  0  0  0  0  0  0
  -16.1664   -0.9050    0.8771 C   0  0  0  0  0  0  0  0  0  0  0  0
  -16.3014    1.5994    0.5351 H   0  0  0  0  0  0  0  0  0  0  0  0
  -18.0666    1.6376    0.3123 H   0  0  0  0  0  0  0  0  0  0  0  0
  -17.3734    1.7312    1.9495 H   0  0  0  0  0  0  0  0  0  0  0  0
  -19.4024   -0.2320    1.4891 H   0  0  0  0  0  0  0  0  0  0  0  0
  -19.4177   -2.7182    1.6508 H   0  0  0  0  0  0  0  0  0  0  0  0
  -16.5111   -4.8443    1.0723 H   0  0  0  0  0  0  0  0  0  0  0  0
  -19.0388   -7.1427    2.3063 H   0  0  0  0  0  0  0  0  0  0  0  0
  -17.2839   -6.8823    2.2985 H   0  0  0  0  0  0  0  0  0  0  0  0
  -18.6987   -6.4518   -0.2606 H   0  0  0  0  0  0  0  0  0  0  0  0
  -18.5852   -8.1413    0.3229 H   0  0  0  0  0  0  0  0  0  0  0  0
  -16.3120   -8.1400    0.2612 H   0  0  0  0  0  0  0  0  0  0  0  0
  -16.2032   -6.3387    0.2870 H   0  0  0  0  0  0  0  0  0  0  0  0
  -17.4298   -7.5291   -2.0793 H   0  0  0  0  0  0  0  0  0  0  0  0
  -13.5196   -7.7702   -6.3157 H   0  0  0  0  0  0  0  0  0  0  0  0
  -15.4363   -6.9296   -7.6314 H   0  0  0  0  0  0  0  0  0  0  0  0
  -17.4004   -6.0136   -6.4177 H   0  0  0  0  0  0  0  0  0  0  0  0
  -14.7455   -2.9544   -0.1481 H   0  0  0  0  0  0  0  0  0  0  0  0
  -15.2346   -0.3846    0.6555 H   0  0  0  0  0  0  0  0  0  0  0  0
  -11.3865   -8.6385   -2.4787 N   0  0  0  0  0  0  0  0  0  0  0  0
  -11.8782   -7.4244   -2.3699 C   0  0  0  0  0  0  0  0  0  0  0  0
  -12.9117   -6.9069   -3.0079 N   0  0  0  0  0  0  0  0  0  0  0  0
  -13.5331   -7.7126   -3.8676 C   0  0  0  0  0  0  0  0  0  0  0  0
  -13.1090   -9.0115   -4.0701 C   0  0  0  0  0  0  0  0  0  0  0  0
  -12.0159   -9.4128   -3.3333 C   0  0  0  0  0  0  0  0  0  0  0  0
  -11.5276  -10.6473   -3.4538 N   0  0  0  0  0  0  0  0  0  0  0  0
  -11.2658   -6.6266   -1.5197 N   0  0  0  0  0  0  0  0  0  0  0  0
  -13.5958   -9.6786   -4.7593 H   0  0  0  0  0  0  0  0  0  0  0  0
  -10.7353  -10.8535   -2.8839 H   0  0  0  0  0  0  0  0  0  0  0  0
  -11.9232  -11.3202   -4.0694 H   0  0  0  0  0  0  0  0  0  0  0  0
  -11.6275   -5.7070   -1.4285 H   0  0  0  0  0  0  0  0  0  0  0  0
  -10.4865   -7.0018   -1.0328 H   0  0  0  0  0  0  0  0  0  0  0  0
  1  2  1  0
  2  3  2  0
  3  4  1  0
  4  5  2  0
  5  6  1  0
  6  7  1  0
  7  8  2  0
  7  9  1  0
  9 10  1  0
 10 11  1  0
 11 12  1  0
 12 13  1  0
 13 14  2  0
 13 15  1  0
 15 16  1  0
 16 17  2  0
 17 18  1  0
 18 19  2  0
 19 20  1  0
 20 21  1  0
  5 22  1  0
 22 23  1  0
 22 24  2  0
  2 24  1  0
 15 20  2  0
  1 25  1  0
  1 26  1  0
  1 27  1  0
  3 28  1  0
  4 29  1  0
  6 30  1  0
  9 31  1  0
  9 32  1  0
 10 33  1  0
 10 34  1  0
 11 35  1  0
 11 36  1  0
 12 37  1  0
 17 38  1  0
 18 39  1  0
 19 40  1  0
 23 41  1  0
 24 42  1  0
 43 44  2  0
 43 48  1  0
 44 45  1  0
 44 50  1  0
 45 46  2  0
 46 47  1  0
 47 48  2  0
 47 51  1  0
 48 49  1  0
 49 52  1  0
 49 53  1  0
 50 54  1  0
 50 55  1  0
 16 46  1  0
M  END
>  <CHROM.1>  (111) 
-7.85494018,-70.51786892,93.79447857,-159.45420467,156.49061714,-134.70582506
-2.59576437,-16.82262164,-4.79801655,-1.09588681,-2.13605727,-1.13911128
-2.79822442

>  <Name>  (111) 
design_2

>  <RI>  (111) 
18134700.000000

>  <Rbt.Current_Directory>  (111) 
/pylon5/mc5pksp/smaltr/gateway_workdirs/PROCESS_93251df5-8da2-4fa9-b874-71853b29d1ad

>  <Rbt.Executable>  (111) 
rbdock ($Id: //depot/dev/client3/rdock/2013.1/src/exe/rbdock.cxx#4 $)

>  <Rbt.Library>  (111) 
libRbt.so (2013.1, Build901 2013/11/27)

>  <Rbt.Parameter_File>  (111) 
/home/smaltr/software/rDock_2013.1_src//data/scripts/dock.prm

>  <Rbt.Receptor>  (111) 
/pylon5/mc5pksp/smaltr/gateway_workdirs/PROCESS_93251df5-8da2-4fa9-b874-71853b29d1ad/output/SnD-Target-Sep02/cavity/pocket_docking.prm

>  <SCORE>  (111) 
-21.179000

>  <SCORE.INTER>  (111) 
-19.124800

>  <SCORE.INTER.CONST>  (111) 
1

>  <SCORE.INTER.POLAR>  (111) 
-1.342290

>  <SCORE.INTER.REPUL>  (111) 
0.027236

>  <SCORE.INTER.ROT>  (111) 
6

>  <SCORE.INTER.VDW>  (111) 
-26.097200

>  <SCORE.INTER.norm>  (111) 
-0.796868

>  <SCORE.INTRA>  (111) 
-2.054130

>  <SCORE.INTRA.DIHEDRAL>  (111) 
-1.438940

>  <SCORE.INTRA.DIHEDRAL.0>  (111) 
15.237700

>  <SCORE.INTRA.POLAR>  (111) 
0

>  <SCORE.INTRA.POLAR.0>  (111) 
0

>  <SCORE.INTRA.REPUL>  (111) 
0

>  <SCORE.INTRA.REPUL.0>  (111) 
0

>  <SCORE.INTRA.VDW>  (111) 
-1.334660

>  <SCORE.INTRA.VDW.0>  (111) 
0.589361

>  <SCORE.INTRA.norm>  (111) 
-0.085589

>  <SCORE.RESTR>  (111) 
0

>  <SCORE.RESTR.CAVITY>  (111) 
0

>  <SCORE.RESTR.norm>  (111) 
0

>  <SCORE.SYSTEM>  (111) 
0

>  <SCORE.SYSTEM.CONST>  (111) 
0

>  <SCORE.SYSTEM.DIHEDRAL>  (111) 
0

>  <SCORE.SYSTEM.norm>  (111) 
0

>  <SCORE.heavy>  (111) 
24

>  <SCORE.norm>  (111) 
-0.882457

>  <SMILES>  (111) 
Cc1ccc(NC(=O)CCCNC(=O)c2ccccc2Cl)c(O)c1

>  <Cycle>  (111) 
228

>  <MolWeight>  (111) 
346.814000

>  <LogP>  (111) 
3.502720

>  <QED>  (111) 
0.552985

>  <SAS>  (111) 
2.1886079216756897

$$$$
design_2
     RDKit          3D

 55 57  0  0  0  0  0  0  0  0999 V2000
  -17.2584    1.2936    0.9578 C   0  0  0  0  0  0  0  0  0  0  0  0
  -17.3021   -0.1742    1.0602 C   0  0  0  0  0  0  0  0  0  0  0  0
  -18.4853   -0.8019    1.3398 C   0  0  0  0  0  0  0  0  0  0  0  0
  -18.4810   -2.2070    1.4286 C   0  0  0  0  0  0  0  0  0  0  0  0
  -17.3474   -2.9617    1.2473 C   0  0  0  0  0  0  0  0  0  0  0  0
  -17.3581   -4.3631    1.3389 N   0  0  0  0  0  0  0  0  0  0  0  0
  -18.4355   -5.1617    1.7665 C   0  0  0  0  0  0  0  0  0  0  0  0
  -19.5126   -4.6639    2.1126 O   0  0  0  0  0  0  0  0  0  0  0  0
  -18.2169   -6.6536    1.7834 C   0  0  0  0  0  0  0  0  0  0  0  0
  -18.1475   -7.1444    0.3754 C   0  0  0  0  0  0  0  0  0  0  0  0
  -16.7397   -7.2049   -0.1003 C   0  0  0  0  0  0  0  0  0  0  0  0
  -16.6334   -7.2078   -1.5477 N   0  0  0  0  0  0  0  0  0  0  0  0
  -15.4904   -6.7912   -2.2592 C   0  0  0  0  0  0  0  0  0  0  0  0
  -14.4909   -6.3906   -1.6197 O   0  0  0  0  0  0  0  0  0  0  0  0
  -15.4769   -6.8287   -3.7369 C   0  0  0  0  0  0  0  0  0  0  0  0
  -14.3901   -7.3357   -4.4184 C   0  0  0  0  0  0  0  0  0  0  0  0
  -14.3888   -7.3654   -5.7973 C   0  0  0  0  0  0  0  0  0  0  0  0
  -15.4544   -6.8983   -6.5420 C   0  0  0  0  0  0  0  0  0  0  0  0
  -16.5419   -6.3910   -5.8622 C   0  0  0  0  0  0  0  0  0  0  0  0
  -16.5491   -6.3585   -4.4797 C   0  0  0  0  0  0  0  0  0  0  0  0
  -17.9159   -5.7208   -3.6162 Cl  0  0  0  0  0  0  0  0  0  0  0  0
  -16.1574   -2.2922    0.9637 C   0  0  0  0  0  0  0  0  0  0  0  0
  -15.0034   -3.0012    0.7754 O   0  0  0  0  0  0  0  0  0  0  0  0
  -16.1664   -0.9050    0.8771 C   0  0  0  0  0  0  0  0  0  0  0  0
  -16.3014    1.5994    0.5351 H   0  0  0  0  0  0  0  0  0  0  0  0
  -18.0666    1.6376    0.3123 H   0  0  0  0  0  0  0  0  0  0  0  0
  -17.3734    1.7312    1.9495 H   0  0  0  0  0  0  0  0  0  0  0  0
  -19.4024   -0.2320    1.4891 H   0  0  0  0  0  0  0  0  0  0  0  0
  -16.5111   -4.8443    1.0723 H   0  0  0  0  0  0  0  0  0  0  0  0
  -19.0388   -7.1427    2.3063 H   0  0  0  0  0  0  0  0  0  0  0  0
  -17.2839   -6.8823    2.2985 H   0  0  0  0  0  0  0  0  0  0  0  0
  -18.6987   -6.4518   -0.2606 H   0  0  0  0  0  0  0  0  0  0  0  0
  -18.5852   -8.1413    0.3229 H   0  0  0  0  0  0  0  0  0  0  0  0
  -16.3120   -8.1400    0.2612 H   0  0  0  0  0  0  0  0  0  0  0  0
  -16.2032   -6.3387    0.2870 H   0  0  0  0  0  0  0  0  0  0  0  0
  -17.4298   -7.5291   -2.0793 H   0  0  0  0  0  0  0  0  0  0  0  0
  -13.5301   -7.7139   -3.8657 H   0  0  0  0  0  0  0  0  0  0  0  0
  -13.5196   -7.7702   -6.3157 H   0  0  0  0  0  0  0  0  0  0  0  0
  -15.4363   -6.9296   -7.6314 H   0  0  0  0  0  0  0  0  0  0  0  0
  -17.4004   -6.0136   -6.4177 H   0  0  0  0  0  0  0  0  0  0  0  0
  -14.7455   -2.9544   -0.1481 H   0  0  0  0  0  0  0  0  0  0  0  0
  -15.2346   -0.3846    0.6555 H   0  0  0  0  0  0  0  0  0  0  0  0
  -21.7408   -4.0070    2.2128 N   0  0  0  0  0  0  0  0  0  0  0  0
  -20.5424   -4.4924    2.4491 C   0  0  0  0  0  0  0  0  0  0  0  0
  -19.3747   -3.9270    2.2044 N   0  0  0  0  0  0  0  0  0  0  0  0
  -19.4144   -2.7164    1.6500 C   0  0  0  0  0  0  0  0  0  0  0  0
  -20.6150   -2.1011    1.3533 C   0  0  0  0  0  0  0  0  0  0  0  0
  -21.7529   -2.8128    1.6650 C   0  0  0  0  0  0  0  0  0  0  0  0
  -22.9621   -2.3083    1.4198 N   0  0  0  0  0  0  0  0  0  0  0  0
  -20.5010   -5.6888    2.9979 N   0  0  0  0  0  0  0  0  0  0  0  0
  -20.6699   -1.1246    0.9056 H   0  0  0  0  0  0  0  0  0  0  0  0
  -23.7307   -2.8902    1.6765 H   0  0  0  0  0  0  0  0  0  0  0  0
  -23.0936   -1.4128    1.0085 H   0  0  0  0  0  0  0  0  0  0  0  0
  -19.6020   -6.0666    3.1813 H   0  0  0  0  0  0  0  0  0  0  0  0
  -21.3715   -6.1267    3.1874 H   0  0  0  0  0  0  0  0  0  0  0  0
  1  2  1  0
  2  3  2  0
  3  4  1  0
  4  5  2  0
  5  6  1  0
  6  7  1  0
  7  8  2  0
  7  9  1  0
  9 10  1  0
 10 11  1  0
 11 12  1  0
 12 13  1  0
 13 14  2  0
 13 15  1  0
 15 16  2  0
 16 17  1  0
 17 18  2  0
 18 19  1  0
 19 20  2  0
 20 21  1  0
  5 22  1  0
 22 23  1  0
 22 24  2  0
  2 24  1  0
 15 20  1  0
  1 25  1  0
  1 26  1  0
  1 27  1  0
  3 28  1  0
  6 29  1  0
  9 30  1  0
  9 31  1  0
 10 32  1  0
 10 33  1  0
 11 34  1  0
 11 35  1  0
 12 36  1  0
 16 37  1  0
 17 38  1  0
 18 39  1  0
 19 40  1  0
 23 41  1  0
 24 42  1  0
 43 44  2  0
 43 48  1  0
 44 45  1  0
 44 50  1  0
 45 46  2  0
 46 47  1  0
 47 48  2  0
 47 51  1  0
 48 49  1  0
 49 52  1  0
 49 53  1  0
 50 54  1  0
 50 55  1  0
  4 46  1  0
M  END
>  <CHROM.1>  (112) 
-7.85494018,-70.51786892,93.79447857,-159.45420467,156.49061714,-134.70582506
-2.59576437,-16.82262164,-4.79801655,-1.09588681,-2.13605727,-1.13911128
-2.79822442

>  <Name>  (112) 
design_2

>  <RI>  (112) 
18134700.000000

>  <Rbt.Current_Directory>  (112) 
/pylon5/mc5pksp/smaltr/gateway_workdirs/PROCESS_93251df5-8da2-4fa9-b874-71853b29d1ad

>  <Rbt.Executable>  (112) 
rbdock ($Id: //depot/dev/client3/rdock/2013.1/src/exe/rbdock.cxx#4 $)

>  <Rbt.Library>  (112) 
libRbt.so (2013.1, Build901 2013/11/27)

>  <Rbt.Parameter_File>  (112) 
/home/smaltr/software/rDock_2013.1_src//data/scripts/dock.prm

>  <Rbt.Receptor>  (112) 
/pylon5/mc5pksp/smaltr/gateway_workdirs/PROCESS_93251df5-8da2-4fa9-b874-71853b29d1ad/output/SnD-Target-Sep02/cavity/pocket_docking.prm

>  <SCORE>  (112) 
-21.179000

>  <SCORE.INTER>  (112) 
-19.124800

>  <SCORE.INTER.CONST>  (112) 
1

>  <SCORE.INTER.POLAR>  (112) 
-1.342290

>  <SCORE.INTER.REPUL>  (112) 
0.027236

>  <SCORE.INTER.ROT>  (112) 
6

>  <SCORE.INTER.VDW>  (112) 
-26.097200

>  <SCORE.INTER.norm>  (112) 
-0.796868

>  <SCORE.INTRA>  (112) 
-2.054130

>  <SCORE.INTRA.DIHEDRAL>  (112) 
-1.438940

>  <SCORE.INTRA.DIHEDRAL.0>  (112) 
15.237700

>  <SCORE.INTRA.POLAR>  (112) 
0

>  <SCORE.INTRA.POLAR.0>  (112) 
0

>  <SCORE.INTRA.REPUL>  (112) 
0

>  <SCORE.INTRA.REPUL.0>  (112) 
0

>  <SCORE.INTRA.VDW>  (112) 
-1.334660

>  <SCORE.INTRA.VDW.0>  (112) 
0.589361

>  <SCORE.INTRA.norm>  (112) 
-0.085589

>  <SCORE.RESTR>  (112) 
0

>  <SCORE.RESTR.CAVITY>  (112) 
0

>  <SCORE.RESTR.norm>  (112) 
0

>  <SCORE.SYSTEM>  (112) 
0

>  <SCORE.SYSTEM.CONST>  (112) 
0

>  <SCORE.SYSTEM.DIHEDRAL>  (112) 
0

>  <SCORE.SYSTEM.norm>  (112) 
0

>  <SCORE.heavy>  (112) 
24

>  <SCORE.norm>  (112) 
-0.882457

>  <SMILES>  (112) 
Cc1ccc(NC(=O)CCCNC(=O)c2ccccc2Cl)c(O)c1

>  <Cycle>  (112) 
228

>  <MolWeight>  (112) 
346.814000

>  <LogP>  (112) 
3.502720

>  <QED>  (112) 
0.552985

>  <SAS>  (112) 
2.1886079216756897

$$$$
design_2
     RDKit          3D

 55 57  0  0  0  0  0  0  0  0999 V2000
  -17.2584    1.2936    0.9578 C   0  0  0  0  0  0  0  0  0  0  0  0
  -17.3021   -0.1742    1.0602 C   0  0  0  0  0  0  0  0  0  0  0  0
  -18.4853   -0.8019    1.3398 C   0  0  0  0  0  0  0  0  0  0  0  0
  -18.4810   -2.2070    1.4286 C   0  0  0  0  0  0  0  0  0  0  0  0
  -17.3474   -2.9617    1.2473 C   0  0  0  0  0  0  0  0  0  0  0  0
  -17.3581   -4.3631    1.3389 N   0  0  0  0  0  0  0  0  0  0  0  0
  -18.4355   -5.1617    1.7665 C   0  0  0  0  0  0  0  0  0  0  0  0
  -19.5126   -4.6639    2.1126 O   0  0  0  0  0  0  0  0  0  0  0  0
  -18.2169   -6.6536    1.7834 C   0  0  0  0  0  0  0  0  0  0  0  0
  -18.1475   -7.1444    0.3754 C   0  0  0  0  0  0  0  0  0  0  0  0
  -16.7397   -7.2049   -0.1003 C   0  0  0  0  0  0  0  0  0  0  0  0
  -16.6334   -7.2078   -1.5477 N   0  0  0  0  0  0  0  0  0  0  0  0
  -15.4904   -6.7912   -2.2592 C   0  0  0  0  0  0  0  0  0  0  0  0
  -14.4909   -6.3906   -1.6197 O   0  0  0  0  0  0  0  0  0  0  0  0
  -15.4769   -6.8287   -3.7369 C   0  0  0  0  0  0  0  0  0  0  0  0
  -14.3901   -7.3357   -4.4184 C   0  0  0  0  0  0  0  0  0  0  0  0
  -14.3888   -7.3654   -5.7973 C   0  0  0  0  0  0  0  0  0  0  0  0
  -15.4544   -6.8983   -6.5420 C   0  0  0  0  0  0  0  0  0  0  0  0
  -16.5419   -6.3910   -5.8622 C   0  0  0  0  0  0  0  0  0  0  0  0
  -16.5491   -6.3585   -4.4797 C   0  0  0  0  0  0  0  0  0  0  0  0
  -17.9159   -5.7208   -3.6162 Cl  0  0  0  0  0  0  0  0  0  0  0  0
  -16.1574   -2.2922    0.9637 C   0  0  0  0  0  0  0  0  0  0  0  0
  -15.0034   -3.0012    0.7754 O   0  0  0  0  0  0  0  0  0  0  0  0
  -16.1664   -0.9050    0.8771 C   0  0  0  0  0  0  0  0  0  0  0  0
  -16.3014    1.5994    0.5351 H   0  0  0  0  0  0  0  0  0  0  0  0
  -18.0666    1.6376    0.3123 H   0  0  0  0  0  0  0  0  0  0  0  0
  -17.3734    1.7312    1.9495 H   0  0  0  0  0  0  0  0  0  0  0  0
  -19.4177   -2.7182    1.6508 H   0  0  0  0  0  0  0  0  0  0  0  0
  -16.5111   -4.8443    1.0723 H   0  0  0  0  0  0  0  0  0  0  0  0
  -19.0388   -7.1427    2.3063 H   0  0  0  0  0  0  0  0  0  0  0  0
  -17.2839   -6.8823    2.2985 H   0  0  0  0  0  0  0  0  0  0  0  0
  -18.6987   -6.4518   -0.2606 H   0  0  0  0  0  0  0  0  0  0  0  0
  -18.5852   -8.1413    0.3229 H   0  0  0  0  0  0  0  0  0  0  0  0
  -16.3120   -8.1400    0.2612 H   0  0  0  0  0  0  0  0  0  0  0  0
  -16.2032   -6.3387    0.2870 H   0  0  0  0  0  0  0  0  0  0  0  0
  -17.4298   -7.5291   -2.0793 H   0  0  0  0  0  0  0  0  0  0  0  0
  -13.5301   -7.7139   -3.8657 H   0  0  0  0  0  0  0  0  0  0  0  0
  -13.5196   -7.7702   -6.3157 H   0  0  0  0  0  0  0  0  0  0  0  0
  -15.4363   -6.9296   -7.6314 H   0  0  0  0  0  0  0  0  0  0  0  0
  -17.4004   -6.0136   -6.4177 H   0  0  0  0  0  0  0  0  0  0  0  0
  -14.7455   -2.9544   -0.1481 H   0  0  0  0  0  0  0  0  0  0  0  0
  -15.2346   -0.3846    0.6555 H   0  0  0  0  0  0  0  0  0  0  0  0
  -21.6979    1.1708    1.8583 N   0  0  0  0  0  0  0  0  0  0  0  0
  -21.6452   -0.1060    1.5507 C   0  0  0  0  0  0  0  0  0  0  0  0
  -20.5725   -0.8508    1.3567 N   0  0  0  0  0  0  0  0  0  0  0  0
  -19.3992   -0.2340    1.4886 C   0  0  0  0  0  0  0  0  0  0  0  0
  -19.3247    1.1076    1.8091 C   0  0  0  0  0  0  0  0  0  0  0  0
  -20.5282    1.7561    1.9815 C   0  0  0  0  0  0  0  0  0  0  0  0
  -20.5668    3.0515    2.2934 N   0  0  0  0  0  0  0  0  0  0  0  0
  -22.8042   -0.7178    1.4207 N   0  0  0  0  0  0  0  0  0  0  0  0
  -18.3883    1.6251    1.9202 H   0  0  0  0  0  0  0  0  0  0  0  0
  -21.4791    3.4410    2.3994 H   0  0  0  0  0  0  0  0  0  0  0  0
  -19.7441    3.5967    2.4129 H   0  0  0  0  0  0  0  0  0  0  0  0
  -22.7779   -1.6822    1.1884 H   0  0  0  0  0  0  0  0  0  0  0  0
  -23.6199   -0.1703    1.5632 H   0  0  0  0  0  0  0  0  0  0  0  0
  1  2  1  0
  2  3  2  0
  3  4  1  0
  4  5  2  0
  5  6  1  0
  6  7  1  0
  7  8  2  0
  7  9  1  0
  9 10  1  0
 10 11  1  0
 11 12  1  0
 12 13  1  0
 13 14  2  0
 13 15  1  0
 15 16  2  0
 16 17  1  0
 17 18  2  0
 18 19  1  0
 19 20  2  0
 20 21  1  0
  5 22  1  0
 22 23  1  0
 22 24  2  0
  2 24  1  0
 15 20  1  0
  1 25  1  0
  1 26  1  0
  1 27  1  0
  4 28  1  0
  6 29  1  0
  9 30  1  0
  9 31  1  0
 10 32  1  0
 10 33  1  0
 11 34  1  0
 11 35  1  0
 12 36  1  0
 16 37  1  0
 17 38  1  0
 18 39  1  0
 19 40  1  0
 23 41  1  0
 24 42  1  0
 43 44  2  0
 43 48  1  0
 44 45  1  0
 44 50  1  0
 45 46  2  0
 46 47  1  0
 47 48  2  0
 47 51  1  0
 48 49  1  0
 49 52  1  0
 49 53  1  0
 50 54  1  0
 50 55  1  0
  3 46  1  0
M  END
>  <CHROM.1>  (113) 
-7.85494018,-70.51786892,93.79447857,-159.45420467,156.49061714,-134.70582506
-2.59576437,-16.82262164,-4.79801655,-1.09588681,-2.13605727,-1.13911128
-2.79822442

>  <Name>  (113) 
design_2

>  <RI>  (113) 
18134700.000000

>  <Rbt.Current_Directory>  (113) 
/pylon5/mc5pksp/smaltr/gateway_workdirs/PROCESS_93251df5-8da2-4fa9-b874-71853b29d1ad

>  <Rbt.Executable>  (113) 
rbdock ($Id: //depot/dev/client3/rdock/2013.1/src/exe/rbdock.cxx#4 $)

>  <Rbt.Library>  (113) 
libRbt.so (2013.1, Build901 2013/11/27)

>  <Rbt.Parameter_File>  (113) 
/home/smaltr/software/rDock_2013.1_src//data/scripts/dock.prm

>  <Rbt.Receptor>  (113) 
/pylon5/mc5pksp/smaltr/gateway_workdirs/PROCESS_93251df5-8da2-4fa9-b874-71853b29d1ad/output/SnD-Target-Sep02/cavity/pocket_docking.prm

>  <SCORE>  (113) 
-21.179000

>  <SCORE.INTER>  (113) 
-19.124800

>  <SCORE.INTER.CONST>  (113) 
1

>  <SCORE.INTER.POLAR>  (113) 
-1.342290

>  <SCORE.INTER.REPUL>  (113) 
0.027236

>  <SCORE.INTER.ROT>  (113) 
6

>  <SCORE.INTER.VDW>  (113) 
-26.097200

>  <SCORE.INTER.norm>  (113) 
-0.796868

>  <SCORE.INTRA>  (113) 
-2.054130

>  <SCORE.INTRA.DIHEDRAL>  (113) 
-1.438940

>  <SCORE.INTRA.DIHEDRAL.0>  (113) 
15.237700

>  <SCORE.INTRA.POLAR>  (113) 
0

>  <SCORE.INTRA.POLAR.0>  (113) 
0

>  <SCORE.INTRA.REPUL>  (113) 
0

>  <SCORE.INTRA.REPUL.0>  (113) 
0

>  <SCORE.INTRA.VDW>  (113) 
-1.334660

>  <SCORE.INTRA.VDW.0>  (113) 
0.589361

>  <SCORE.INTRA.norm>  (113) 
-0.085589

>  <SCORE.RESTR>  (113) 
0

>  <SCORE.RESTR.CAVITY>  (113) 
0

>  <SCORE.RESTR.norm>  (113) 
0

>  <SCORE.SYSTEM>  (113) 
0

>  <SCORE.SYSTEM.CONST>  (113) 
0

>  <SCORE.SYSTEM.DIHEDRAL>  (113) 
0

>  <SCORE.SYSTEM.norm>  (113) 
0

>  <SCORE.heavy>  (113) 
24

>  <SCORE.norm>  (113) 
-0.882457

>  <SMILES>  (113) 
Cc1ccc(NC(=O)CCCNC(=O)c2ccccc2Cl)c(O)c1

>  <Cycle>  (113) 
228

>  <MolWeight>  (113) 
346.814000

>  <LogP>  (113) 
3.502720

>  <QED>  (113) 
0.552985

>  <SAS>  (113) 
2.1886079216756897

$$$$
design_2
     RDKit          3D

 55 57  0  0  0  0  0  0  0  0999 V2000
  -17.2584    1.2936    0.9578 C   0  0  0  0  0  0  0  0  0  0  0  0
  -17.3021   -0.1742    1.0602 C   0  0  0  0  0  0  0  0  0  0  0  0
  -18.4853   -0.8019    1.3398 C   0  0  0  0  0  0  0  0  0  0  0  0
  -18.4810   -2.2070    1.4286 C   0  0  0  0  0  0  0  0  0  0  0  0
  -17.3474   -2.9617    1.2473 C   0  0  0  0  0  0  0  0  0  0  0  0
  -17.3581   -4.3631    1.3389 N   0  0  0  0  0  0  0  0  0  0  0  0
  -18.4355   -5.1617    1.7665 C   0  0  0  0  0  0  0  0  0  0  0  0
  -19.5126   -4.6639    2.1126 O   0  0  0  0  0  0  0  0  0  0  0  0
  -18.2169   -6.6536    1.7834 C   0  0  0  0  0  0  0  0  0  0  0  0
  -18.1475   -7.1444    0.3754 C   0  0  0  0  0  0  0  0  0  0  0  0
  -16.7397   -7.2049   -0.1003 C   0  0  0  0  0  0  0  0  0  0  0  0
  -16.6334   -7.2078   -1.5477 N   0  0  0  0  0  0  0  0  0  0  0  0
  -15.4904   -6.7912   -2.2592 C   0  0  0  0  0  0  0  0  0  0  0  0
  -14.4909   -6.3906   -1.6197 O   0  0  0  0  0  0  0  0  0  0  0  0
  -15.4769   -6.8287   -3.7369 C   0  0  0  0  0  0  0  0  0  0  0  0
  -14.3901   -7.3357   -4.4184 C   0  0  0  0  0  0  0  0  0  0  0  0
  -14.3888   -7.3654   -5.7973 C   0  0  0  0  0  0  0  0  0  0  0  0
  -15.4544   -6.8983   -6.5420 C   0  0  0  0  0  0  0  0  0  0  0  0
  -16.5419   -6.3910   -5.8622 C   0  0  0  0  0  0  0  0  0  0  0  0
  -16.5491   -6.3585   -4.4797 C   0  0  0  0  0  0  0  0  0  0  0  0
  -17.9159   -5.7208   -3.6162 Cl  0  0  0  0  0  0  0  0  0  0  0  0
  -16.1574   -2.2922    0.9637 C   0  0  0  0  0  0  0  0  0  0  0  0
  -15.0034   -3.0012    0.7754 O   0  0  0  0  0  0  0  0  0  0  0  0
  -16.1664   -0.9050    0.8771 C   0  0  0  0  0  0  0  0  0  0  0  0
  -16.3014    1.5994    0.5351 H   0  0  0  0  0  0  0  0  0  0  0  0
  -18.0666    1.6376    0.3123 H   0  0  0  0  0  0  0  0  0  0  0  0
  -17.3734    1.7312    1.9495 H   0  0  0  0  0  0  0  0  0  0  0  0
  -19.4024   -0.2320    1.4891 H   0  0  0  0  0  0  0  0  0  0  0  0
  -19.4177   -2.7182    1.6508 H   0  0  0  0  0  0  0  0  0  0  0  0
  -16.5111   -4.8443    1.0723 H   0  0  0  0  0  0  0  0  0  0  0  0
  -19.0388   -7.1427    2.3063 H   0  0  0  0  0  0  0  0  0  0  0  0
  -17.2839   -6.8823    2.2985 H   0  0  0  0  0  0  0  0  0  0  0  0
  -18.6987   -6.4518   -0.2606 H   0  0  0  0  0  0  0  0  0  0  0  0
  -18.5852   -8.1413    0.3229 H   0  0  0  0  0  0  0  0  0  0  0  0
  -16.3120   -8.1400    0.2612 H   0  0  0  0  0  0  0  0  0  0  0  0
  -16.2032   -6.3387    0.2870 H   0  0  0  0  0  0  0  0  0  0  0  0
  -17.4298   -7.5291   -2.0793 H   0  0  0  0  0  0  0  0  0  0  0  0
  -13.5301   -7.7139   -3.8657 H   0  0  0  0  0  0  0  0  0  0  0  0
  -13.5196   -7.7702   -6.3157 H   0  0  0  0  0  0  0  0  0  0  0  0
  -15.4363   -6.9296   -7.6314 H   0  0  0  0  0  0  0  0  0  0  0  0
  -17.4004   -6.0136   -6.4177 H   0  0  0  0  0  0  0  0  0  0  0  0
  -14.7455   -2.9544   -0.1481 H   0  0  0  0  0  0  0  0  0  0  0  0
  -12.9229    0.9225    0.0890 N   0  0  0  0  0  0  0  0  0  0  0  0
  -14.0520    1.0871   -0.5633 C   0  0  0  0  0  0  0  0  0  0  0  0
  -15.2095    0.4903   -0.3462 N   0  0  0  0  0  0  0  0  0  0  0  0
  -15.2379   -0.3864    0.6563 C   0  0  0  0  0  0  0  0  0  0  0  0
  -14.1135   -0.6464    1.4155 C   0  0  0  0  0  0  0  0  0  0  0  0
  -12.9767    0.0523    1.0719 C   0  0  0  0  0  0  0  0  0  0  0  0
  -11.8382   -0.1247    1.7422 N   0  0  0  0  0  0  0  0  0  0  0  0
  -14.0262    1.9541   -1.5542 N   0  0  0  0  0  0  0  0  0  0  0  0
  -14.1144   -1.3503    2.2289 H   0  0  0  0  0  0  0  0  0  0  0  0
  -11.0647    0.4208    1.4270 H   0  0  0  0  0  0  0  0  0  0  0  0
  -11.7606   -0.7571    2.5053 H   0  0  0  0  0  0  0  0  0  0  0  0
  -14.8726    2.0874   -2.0548 H   0  0  0  0  0  0  0  0  0  0  0  0
  -13.1624    2.4106   -1.7296 H   0  0  0  0  0  0  0  0  0  0  0  0
  1  2  1  0
  2  3  2  0
  3  4  1  0
  4  5  2  0
  5  6  1  0
  6  7  1  0
  7  8  2  0
  7  9  1  0
  9 10  1  0
 10 11  1  0
 11 12  1  0
 12 13  1  0
 13 14  2  0
 13 15  1  0
 15 16  2  0
 16 17  1  0
 17 18  2  0
 18 19  1  0
 19 20  2  0
 20 21  1  0
  5 22  1  0
 22 23  1  0
 22 24  2  0
  2 24  1  0
 15 20  1  0
  1 25  1  0
  1 26  1  0
  1 27  1  0
  3 28  1  0
  4 29  1  0
  6 30  1  0
  9 31  1  0
  9 32  1  0
 10 33  1  0
 10 34  1  0
 11 35  1  0
 11 36  1  0
 12 37  1  0
 16 38  1  0
 17 39  1  0
 18 40  1  0
 19 41  1  0
 23 42  1  0
 43 44  2  0
 43 48  1  0
 44 45  1  0
 44 50  1  0
 45 46  2  0
 46 47  1  0
 47 48  2  0
 47 51  1  0
 48 49  1  0
 49 52  1  0
 49 53  1  0
 50 54  1  0
 50 55  1  0
 24 46  1  0
M  END
>  <CHROM.1>  (114) 
-7.85494018,-70.51786892,93.79447857,-159.45420467,156.49061714,-134.70582506
-2.59576437,-16.82262164,-4.79801655,-1.09588681,-2.13605727,-1.13911128
-2.79822442

>  <Name>  (114) 
design_2

>  <RI>  (114) 
18134700.000000

>  <Rbt.Current_Directory>  (114) 
/pylon5/mc5pksp/smaltr/gateway_workdirs/PROCESS_93251df5-8da2-4fa9-b874-71853b29d1ad

>  <Rbt.Executable>  (114) 
rbdock ($Id: //depot/dev/client3/rdock/2013.1/src/exe/rbdock.cxx#4 $)

>  <Rbt.Library>  (114) 
libRbt.so (2013.1, Build901 2013/11/27)

>  <Rbt.Parameter_File>  (114) 
/home/smaltr/software/rDock_2013.1_src//data/scripts/dock.prm

>  <Rbt.Receptor>  (114) 
/pylon5/mc5pksp/smaltr/gateway_workdirs/PROCESS_93251df5-8da2-4fa9-b874-71853b29d1ad/output/SnD-Target-Sep02/cavity/pocket_docking.prm

>  <SCORE>  (114) 
-21.179000

>  <SCORE.INTER>  (114) 
-19.124800

>  <SCORE.INTER.CONST>  (114) 
1

>  <SCORE.INTER.POLAR>  (114) 
-1.342290

>  <SCORE.INTER.REPUL>  (114) 
0.027236

>  <SCORE.INTER.ROT>  (114) 
6

>  <SCORE.INTER.VDW>  (114) 
-26.097200

>  <SCORE.INTER.norm>  (114) 
-0.796868

>  <SCORE.INTRA>  (114) 
-2.054130

>  <SCORE.INTRA.DIHEDRAL>  (114) 
-1.438940

>  <SCORE.INTRA.DIHEDRAL.0>  (114) 
15.237700

>  <SCORE.INTRA.POLAR>  (114) 
0

>  <SCORE.INTRA.POLAR.0>  (114) 
0

>  <SCORE.INTRA.REPUL>  (114) 
0

>  <SCORE.INTRA.REPUL.0>  (114) 
0

>  <SCORE.INTRA.VDW>  (114) 
-1.334660

>  <SCORE.INTRA.VDW.0>  (114) 
0.589361

>  <SCORE.INTRA.norm>  (114) 
-0.085589

>  <SCORE.RESTR>  (114) 
0

>  <SCORE.RESTR.CAVITY>  (114) 
0

>  <SCORE.RESTR.norm>  (114) 
0

>  <SCORE.SYSTEM>  (114) 
0

>  <SCORE.SYSTEM.CONST>  (114) 
0

>  <SCORE.SYSTEM.DIHEDRAL>  (114) 
0

>  <SCORE.SYSTEM.norm>  (114) 
0

>  <SCORE.heavy>  (114) 
24

>  <SCORE.norm>  (114) 
-0.882457

>  <SMILES>  (114) 
Cc1ccc(NC(=O)CCCNC(=O)c2ccccc2Cl)c(O)c1

>  <Cycle>  (114) 
228

>  <MolWeight>  (114) 
346.814000

>  <LogP>  (114) 
3.502720

>  <QED>  (114) 
0.552985

>  <SAS>  (114) 
2.1886079216756897

$$$$
design_2
     RDKit          3D

 52 54  0  0  0  0  0  0  0  0999 V2000
  -17.2584    1.2936    0.9578 C   0  0  0  0  0  0  0  0  0  0  0  0
  -17.3021   -0.1742    1.0602 C   0  0  0  0  0  0  0  0  0  0  0  0
  -18.4853   -0.8019    1.3398 C   0  0  0  0  0  0  0  0  0  0  0  0
  -18.4810   -2.2070    1.4286 C   0  0  0  0  0  0  0  0  0  0  0  0
  -17.3474   -2.9617    1.2473 C   0  0  0  0  0  0  0  0  0  0  0  0
  -17.3581   -4.3631    1.3389 N   0  0  0  0  0  0  0  0  0  0  0  0
  -18.4355   -5.1617    1.7665 C   0  0  0  0  0  0  0  0  0  0  0  0
  -19.5126   -4.6639    2.1126 O   0  0  0  0  0  0  0  0  0  0  0  0
  -18.2169   -6.6536    1.7834 C   0  0  0  0  0  0  0  0  0  0  0  0
  -18.1475   -7.1444    0.3754 C   0  0  0  0  0  0  0  0  0  0  0  0
  -16.7397   -7.2049   -0.1003 C   0  0  0  0  0  0  0  0  0  0  0  0
  -16.6334   -7.2078   -1.5477 N   0  0  0  0  0  0  0  0  0  0  0  0
  -15.4904   -6.7912   -2.2592 C   0  0  0  0  0  0  0  0  0  0  0  0
  -14.4909   -6.3906   -1.6197 O   0  0  0  0  0  0  0  0  0  0  0  0
  -15.4769   -6.8287   -3.7369 C   0  0  0  0  0  0  0  0  0  0  0  0
  -14.3901   -7.3357   -4.4184 C   0  0  0  0  0  0  0  0  0  0  0  0
  -14.3888   -7.3654   -5.7973 C   0  0  0  0  0  0  0  0  0  0  0  0
  -15.4544   -6.8983   -6.5420 C   0  0  0  0  0  0  0  0  0  0  0  0
  -16.5419   -6.3910   -5.8622 C   0  0  0  0  0  0  0  0  0  0  0  0
  -16.5491   -6.3585   -4.4797 C   0  0  0  0  0  0  0  0  0  0  0  0
  -17.9159   -5.7208   -3.6162 Cl  0  0  0  0  0  0  0  0  0  0  0  0
  -16.1574   -2.2922    0.9637 C   0  0  0  0  0  0  0  0  0  0  0  0
  -15.0034   -3.0012    0.7754 O   0  0  0  0  0  0  0  0  0  0  0  0
  -16.1664   -0.9050    0.8771 C   0  0  0  0  0  0  0  0  0  0  0  0
  -16.3014    1.5994    0.5351 H   0  0  0  0  0  0  0  0  0  0  0  0
  -18.0666    1.6376    0.3123 H   0  0  0  0  0  0  0  0  0  0  0  0
  -17.3734    1.7312    1.9495 H   0  0  0  0  0  0  0  0  0  0  0  0
  -19.4024   -0.2320    1.4891 H   0  0  0  0  0  0  0  0  0  0  0  0
  -19.4177   -2.7182    1.6508 H   0  0  0  0  0  0  0  0  0  0  0  0
  -16.5111   -4.8443    1.0723 H   0  0  0  0  0  0  0  0  0  0  0  0
  -19.0388   -7.1427    2.3063 H   0  0  0  0  0  0  0  0  0  0  0  0
  -17.2839   -6.8823    2.2985 H   0  0  0  0  0  0  0  0  0  0  0  0
  -18.6987   -6.4518   -0.2606 H   0  0  0  0  0  0  0  0  0  0  0  0
  -18.5852   -8.1413    0.3229 H   0  0  0  0  0  0  0  0  0  0  0  0
  -16.3120   -8.1400    0.2612 H   0  0  0  0  0  0  0  0  0  0  0  0
  -16.2032   -6.3387    0.2870 H   0  0  0  0  0  0  0  0  0  0  0  0
  -17.4298   -7.5291   -2.0793 H   0  0  0  0  0  0  0  0  0  0  0  0
  -13.5301   -7.7139   -3.8657 H   0  0  0  0  0  0  0  0  0  0  0  0
  -13.5196   -7.7702   -6.3157 H   0  0  0  0  0  0  0  0  0  0  0  0
  -15.4363   -6.9296   -7.6314 H   0  0  0  0  0  0  0  0  0  0  0  0
  -17.4004   -6.0136   -6.4177 H   0  0  0  0  0  0  0  0  0  0  0  0
  -15.2346   -0.3846    0.6555 H   0  0  0  0  0  0  0  0  0  0  0  0
  -13.7092   -2.5743   -2.2283 C   0  0  0  0  0  0  0  0  0  0  0  0
  -14.9202   -3.3164   -2.3281 O   0  0  0  0  0  0  0  0  0  0  0  0
  -15.4741   -3.5102   -1.1427 C   0  0  0  0  0  0  0  0  0  0  0  0
  -16.5154   -4.1153   -0.9440 O   0  0  0  0  0  0  0  0  0  0  0  0
  -14.7405   -2.9535   -0.1660 N   0  0  0  0  0  0  0  0  0  0  0  0
  -13.5635   -2.3113   -0.7317 C   0  0  0  0  0  0  0  0  0  0  0  0
  -13.8036   -1.6547   -2.8081 H   0  0  0  0  0  0  0  0  0  0  0  0
  -12.8894   -3.1712   -2.6299 H   0  0  0  0  0  0  0  0  0  0  0  0
  -13.5662   -1.2444   -0.5037 H   0  0  0  0  0  0  0  0  0  0  0  0
  -12.6548   -2.7566   -0.3258 H   0  0  0  0  0  0  0  0  0  0  0  0
  1  2  1  0
  2  3  2  0
  3  4  1  0
  4  5  2  0
  5  6  1  0
  6  7  1  0
  7  8  2  0
  7  9  1  0
  9 10  1  0
 10 11  1  0
 11 12  1  0
 12 13  1  0
 13 14  2  0
 13 15  1  0
 15 16  2  0
 16 17  1  0
 17 18  2  0
 18 19  1  0
 19 20  2  0
 20 21  1  0
  5 22  1  0
 22 23  1  0
 22 24  2  0
  2 24  1  0
 15 20  1  0
  1 25  1  0
  1 26  1  0
  1 27  1  0
  3 28  1  0
  4 29  1  0
  6 30  1  0
  9 31  1  0
  9 32  1  0
 10 33  1  0
 10 34  1  0
 11 35  1  0
 11 36  1  0
 12 37  1  0
 16 38  1  0
 17 39  1  0
 18 40  1  0
 19 41  1  0
 24 42  1  0
 43 48  1  0
 43 49  1  0
 43 50  1  0
 43 44  1  0
 44 45  1  0
 45 46  2  0
 45 47  1  0
 47 48  1  0
 48 51  1  0
 48 52  1  0
 23 47  1  0
M  END
>  <CHROM.1>  (115) 
-7.85494018,-70.51786892,93.79447857,-159.45420467,156.49061714,-134.70582506
-2.59576437,-16.82262164,-4.79801655,-1.09588681,-2.13605727,-1.13911128
-2.79822442

>  <Name>  (115) 
design_2

>  <RI>  (115) 
18134700.000000

>  <Rbt.Current_Directory>  (115) 
/pylon5/mc5pksp/smaltr/gateway_workdirs/PROCESS_93251df5-8da2-4fa9-b874-71853b29d1ad

>  <Rbt.Executable>  (115) 
rbdock ($Id: //depot/dev/client3/rdock/2013.1/src/exe/rbdock.cxx#4 $)

>  <Rbt.Library>  (115) 
libRbt.so (2013.1, Build901 2013/11/27)

>  <Rbt.Parameter_File>  (115) 
/home/smaltr/software/rDock_2013.1_src//data/scripts/dock.prm

>  <Rbt.Receptor>  (115) 
/pylon5/mc5pksp/smaltr/gateway_workdirs/PROCESS_93251df5-8da2-4fa9-b874-71853b29d1ad/output/SnD-Target-Sep02/cavity/pocket_docking.prm

>  <SCORE>  (115) 
-21.179000

>  <SCORE.INTER>  (115) 
-19.124800

>  <SCORE.INTER.CONST>  (115) 
1

>  <SCORE.INTER.POLAR>  (115) 
-1.342290

>  <SCORE.INTER.REPUL>  (115) 
0.027236

>  <SCORE.INTER.ROT>  (115) 
6

>  <SCORE.INTER.VDW>  (115) 
-26.097200

>  <SCORE.INTER.norm>  (115) 
-0.796868

>  <SCORE.INTRA>  (115) 
-2.054130

>  <SCORE.INTRA.DIHEDRAL>  (115) 
-1.438940

>  <SCORE.INTRA.DIHEDRAL.0>  (115) 
15.237700

>  <SCORE.INTRA.POLAR>  (115) 
0

>  <SCORE.INTRA.POLAR.0>  (115) 
0

>  <SCORE.INTRA.REPUL>  (115) 
0

>  <SCORE.INTRA.REPUL.0>  (115) 
0

>  <SCORE.INTRA.VDW>  (115) 
-1.334660

>  <SCORE.INTRA.VDW.0>  (115) 
0.589361

>  <SCORE.INTRA.norm>  (115) 
-0.085589

>  <SCORE.RESTR>  (115) 
0

>  <SCORE.RESTR.CAVITY>  (115) 
0

>  <SCORE.RESTR.norm>  (115) 
0

>  <SCORE.SYSTEM>  (115) 
0

>  <SCORE.SYSTEM.CONST>  (115) 
0

>  <SCORE.SYSTEM.DIHEDRAL>  (115) 
0

>  <SCORE.SYSTEM.norm>  (115) 
0

>  <SCORE.heavy>  (115) 
24

>  <SCORE.norm>  (115) 
-0.882457

>  <SMILES>  (115) 
Cc1ccc(NC(=O)CCCNC(=O)c2ccccc2Cl)c(O)c1

>  <Cycle>  (115) 
228

>  <MolWeight>  (115) 
346.814000

>  <LogP>  (115) 
3.502720

>  <QED>  (115) 
0.552985

>  <SAS>  (115) 
1

$$$$
design_2
     RDKit          3D

 50 51  0  0  0  0  0  0  0  0999 V2000
  -17.2584    1.2936    0.9578 C   0  0  0  0  0  0  0  0  0  0  0  0
  -17.3021   -0.1742    1.0602 C   0  0  0  0  0  0  0  0  0  0  0  0
  -18.4853   -0.8019    1.3398 C   0  0  0  0  0  0  0  0  0  0  0  0
  -18.4810   -2.2070    1.4286 C   0  0  0  0  0  0  0  0  0  0  0  0
  -17.3474   -2.9617    1.2473 C   0  0  0  0  0  0  0  0  0  0  0  0
  -17.3581   -4.3631    1.3389 N   0  0  0  0  0  0  0  0  0  0  0  0
  -18.4355   -5.1617    1.7665 C   0  0  0  0  0  0  0  0  0  0  0  0
  -19.5126   -4.6639    2.1126 O   0  0  0  0  0  0  0  0  0  0  0  0
  -18.2169   -6.6536    1.7834 C   0  0  0  0  0  0  0  0  0  0  0  0
  -18.1475   -7.1444    0.3754 C   0  0  0  0  0  0  0  0  0  0  0  0
  -16.7397   -7.2049   -0.1003 C   0  0  0  0  0  0  0  0  0  0  0  0
  -16.6334   -7.2078   -1.5477 N   0  0  0  0  0  0  0  0  0  0  0  0
  -15.4904   -6.7912   -2.2592 C   0  0  0  0  0  0  0  0  0  0  0  0
  -14.4909   -6.3906   -1.6197 O   0  0  0  0  0  0  0  0  0  0  0  0
  -15.4769   -6.8287   -3.7369 C   0  0  0  0  0  0  0  0  0  0  0  0
  -14.3901   -7.3357   -4.4184 C   0  0  0  0  0  0  0  0  0  0  0  0
  -14.3888   -7.3654   -5.7973 C   0  0  0  0  0  0  0  0  0  0  0  0
  -15.4544   -6.8983   -6.5420 C   0  0  0  0  0  0  0  0  0  0  0  0
  -16.5419   -6.3910   -5.8622 C   0  0  0  0  0  0  0  0  0  0  0  0
  -16.5491   -6.3585   -4.4797 C   0  0  0  0  0  0  0  0  0  0  0  0
  -17.9159   -5.7208   -3.6162 Cl  0  0  0  0  0  0  0  0  0  0  0  0
  -16.1574   -2.2922    0.9637 C   0  0  0  0  0  0  0  0  0  0  0  0
  -15.0034   -3.0012    0.7754 O   0  0  0  0  0  0  0  0  0  0  0  0
  -16.1664   -0.9050    0.8771 C   0  0  0  0  0  0  0  0  0  0  0  0
  -16.3014    1.5994    0.5351 H   0  0  0  0  0  0  0  0  0  0  0  0
  -18.0666    1.6376    0.3123 H   0  0  0  0  0  0  0  0  0  0  0  0
  -17.3734    1.7312    1.9495 H   0  0  0  0  0  0  0  0  0  0  0  0
  -19.4024   -0.2320    1.4891 H   0  0  0  0  0  0  0  0  0  0  0  0
  -19.4177   -2.7182    1.6508 H   0  0  0  0  0  0  0  0  0  0  0  0
  -16.5111   -4.8443    1.0723 H   0  0  0  0  0  0  0  0  0  0  0  0
  -19.0388   -7.1427    2.3063 H   0  0  0  0  0  0  0  0  0  0  0  0
  -17.2839   -6.8823    2.2985 H   0  0  0  0  0  0  0  0  0  0  0  0
  -18.6987   -6.4518   -0.2606 H   0  0  0  0  0  0  0  0  0  0  0  0
  -18.5852   -8.1413    0.3229 H   0  0  0  0  0  0  0  0  0  0  0  0
  -16.3120   -8.1400    0.2612 H   0  0  0  0  0  0  0  0  0  0  0  0
  -16.2032   -6.3387    0.2870 H   0  0  0  0  0  0  0  0  0  0  0  0
  -17.4298   -7.5291   -2.0793 H   0  0  0  0  0  0  0  0  0  0  0  0
  -13.5301   -7.7139   -3.8657 H   0  0  0  0  0  0  0  0  0  0  0  0
  -13.5196   -7.7702   -6.3157 H   0  0  0  0  0  0  0  0  0  0  0  0
  -15.4363   -6.9296   -7.6314 H   0  0  0  0  0  0  0  0  0  0  0  0
  -17.4004   -6.0136   -6.4177 H   0  0  0  0  0  0  0  0  0  0  0  0
  -15.2346   -0.3846    0.6555 H   0  0  0  0  0  0  0  0  0  0  0  0
  -14.7293   -2.9515   -0.2059 N   0  0  0  0  0  0  0  0  0  0  0  0
  -13.3340   -3.0459   -0.6256 C   0  0  0  0  0  0  0  0  0  0  0  0
  -12.4220   -3.2192    0.5645 C   0  0  0  0  0  0  0  0  0  0  0  0
  -12.8551   -3.2681    1.7188 O   0  0  0  0  0  0  0  0  0  0  0  0
  -11.0031   -3.3307    0.3461 O   0  0  0  0  0  0  0  0  0  0  0  0
  -13.0812   -2.1612   -1.1316 H   0  0  0  0  0  0  0  0  0  0  0  0
  -13.2144   -3.9316   -1.2774 H   0  0  0  0  0  0  0  0  0  0  0  0
  -15.0693   -2.0650   -0.5503 H   0  0  0  0  0  0  0  0  0  0  0  0
  1  2  1  0
  2  3  2  0
  3  4  1  0
  4  5  2  0
  5  6  1  0
  6  7  1  0
  7  8  2  0
  7  9  1  0
  9 10  1  0
 10 11  1  0
 11 12  1  0
 12 13  1  0
 13 14  2  0
 13 15  1  0
 15 16  2  0
 16 17  1  0
 17 18  2  0
 18 19  1  0
 19 20  2  0
 20 21  1  0
  5 22  1  0
 22 23  1  0
 22 24  2  0
  2 24  1  0
 15 20  1  0
  1 25  1  0
  1 26  1  0
  1 27  1  0
  3 28  1  0
  4 29  1  0
  6 30  1  0
  9 31  1  0
  9 32  1  0
 10 33  1  0
 10 34  1  0
 11 35  1  0
 11 36  1  0
 12 37  1  0
 16 38  1  0
 17 39  1  0
 18 40  1  0
 19 41  1  0
 24 42  1  0
 43 44  1  0
 44 45  1  0
 44 48  1  0
 44 49  1  0
 45 46  2  0
 45 47  1  0
 43 50  1  0
 23 43  1  0
M  CHG  1  47  -1
M  END
>  <CHROM.1>  (116) 
-7.85494018,-70.51786892,93.79447857,-159.45420467,156.49061714,-134.70582506
-2.59576437,-16.82262164,-4.79801655,-1.09588681,-2.13605727,-1.13911128
-2.79822442

>  <Name>  (116) 
design_2

>  <RI>  (116) 
18134700.000000

>  <Rbt.Current_Directory>  (116) 
/pylon5/mc5pksp/smaltr/gateway_workdirs/PROCESS_93251df5-8da2-4fa9-b874-71853b29d1ad

>  <Rbt.Executable>  (116) 
rbdock ($Id: //depot/dev/client3/rdock/2013.1/src/exe/rbdock.cxx#4 $)

>  <Rbt.Library>  (116) 
libRbt.so (2013.1, Build901 2013/11/27)

>  <Rbt.Parameter_File>  (116) 
/home/smaltr/software/rDock_2013.1_src//data/scripts/dock.prm

>  <Rbt.Receptor>  (116) 
/pylon5/mc5pksp/smaltr/gateway_workdirs/PROCESS_93251df5-8da2-4fa9-b874-71853b29d1ad/output/SnD-Target-Sep02/cavity/pocket_docking.prm

>  <SCORE>  (116) 
-21.179000

>  <SCORE.INTER>  (116) 
-19.124800

>  <SCORE.INTER.CONST>  (116) 
1

>  <SCORE.INTER.POLAR>  (116) 
-1.342290

>  <SCORE.INTER.REPUL>  (116) 
0.027236

>  <SCORE.INTER.ROT>  (116) 
6

>  <SCORE.INTER.VDW>  (116) 
-26.097200

>  <SCORE.INTER.norm>  (116) 
-0.796868

>  <SCORE.INTRA>  (116) 
-2.054130

>  <SCORE.INTRA.DIHEDRAL>  (116) 
-1.438940

>  <SCORE.INTRA.DIHEDRAL.0>  (116) 
15.237700

>  <SCORE.INTRA.POLAR>  (116) 
0

>  <SCORE.INTRA.POLAR.0>  (116) 
0

>  <SCORE.INTRA.REPUL>  (116) 
0

>  <SCORE.INTRA.REPUL.0>  (116) 
0

>  <SCORE.INTRA.VDW>  (116) 
-1.334660

>  <SCORE.INTRA.VDW.0>  (116) 
0.589361

>  <SCORE.INTRA.norm>  (116) 
-0.085589

>  <SCORE.RESTR>  (116) 
0

>  <SCORE.RESTR.CAVITY>  (116) 
0

>  <SCORE.RESTR.norm>  (116) 
0

>  <SCORE.SYSTEM>  (116) 
0

>  <SCORE.SYSTEM.CONST>  (116) 
0

>  <SCORE.SYSTEM.DIHEDRAL>  (116) 
0

>  <SCORE.SYSTEM.norm>  (116) 
0

>  <SCORE.heavy>  (116) 
24

>  <SCORE.norm>  (116) 
-0.882457

>  <SMILES>  (116) 
Cc1ccc(NC(=O)CCCNC(=O)c2ccccc2Cl)c(O)c1

>  <Cycle>  (116) 
228

>  <MolWeight>  (116) 
346.814000

>  <LogP>  (116) 
3.502720

>  <QED>  (116) 
0.552985

>  <SAS>  (116) 
1

$$$$
design_15
     RDKit          3D

 53 56  0  0  0  0  0  0  0  0999 V2000
  -23.6590   -7.1668   -0.6117 C   0  0  0  0  0  0  0  0  0  0  0  0
  -23.4165   -7.0165    0.8642 C   0  0  0  0  0  0  0  0  0  0  0  0
  -22.9821   -5.6514    1.1094 N   0  0  0  0  0  0  0  0  0  0  0  0
  -23.7208   -4.5656    1.1541 N   0  0  0  0  0  0  0  0  0  0  0  0
  -22.9733   -3.5226    1.3990 N   0  0  0  0  0  0  0  0  0  0  0  0
  -21.7389   -3.9496    1.5122 N   0  0  0  0  0  0  0  0  0  0  0  0
  -21.7146   -5.2785    1.3356 C   0  0  0  0  0  0  0  0  0  0  0  0
  -20.5961   -6.1603    1.3710 N   0  0  0  0  0  0  0  0  0  0  0  0
  -19.2559   -5.6671    1.5855 C   0  0  0  0  0  0  0  0  0  0  0  0
  -18.4105   -6.0106    0.4293 C   0  0  0  0  0  0  0  0  0  0  0  0
  -17.0642   -6.2307    0.6080 C   0  0  0  0  0  0  0  0  0  0  0  0
  -16.3074   -6.5535   -0.4926 C   0  0  0  0  0  0  0  0  0  0  0  0
  -16.8258   -6.6699   -1.7743 C   0  0  0  0  0  0  0  0  0  0  0  0
  -15.9667   -7.0272   -2.9161 C   0  0  0  0  0  0  0  0  0  0  0  0
  -16.5721   -7.4043   -3.9271 O   0  0  0  0  0  0  0  0  0  0  0  0
  -14.5639   -6.9230   -2.7927 N   0  0  0  0  0  0  0  0  0  0  0  0
  -13.5940   -7.2151   -3.7652 C   0  0  0  0  0  0  0  0  0  0  0  0
  -13.9382   -7.6163   -5.0205 C   0  0  0  0  0  0  0  0  0  0  0  0
  -12.9585   -7.9056   -5.9849 C   0  0  0  0  0  0  0  0  0  0  0  0
  -11.6330   -7.7963   -5.7027 C   0  0  0  0  0  0  0  0  0  0  0  0
  -11.2604   -7.3903   -4.4334 C   0  0  0  0  0  0  0  0  0  0  0  0
   -9.8260   -7.2616   -4.0950 C   0  0  0  0  0  0  0  0  0  0  0  0
  -12.2236   -7.1116   -3.5036 C   0  0  0  0  0  0  0  0  0  0  0  0
  -18.1682   -6.4485   -1.9393 C   0  0  0  0  0  0  0  0  0  0  0  0
  -18.9565   -6.1177   -0.8269 C   0  0  0  0  0  0  0  0  0  0  0  0
  -24.4064   -6.4410   -0.9323 H   0  0  0  0  0  0  0  0  0  0  0  0
  -22.7290   -6.9929   -1.1529 H   0  0  0  0  0  0  0  0  0  0  0  0
  -24.0187   -8.1743   -0.8206 H   0  0  0  0  0  0  0  0  0  0  0  0
  -22.6555   -7.7222    1.1973 H   0  0  0  0  0  0  0  0  0  0  0  0
  -24.3362   -7.2175    1.4136 H   0  0  0  0  0  0  0  0  0  0  0  0
  -18.8422   -6.1248    2.4841 H   0  0  0  0  0  0  0  0  0  0  0  0
  -19.2825   -4.5842    1.7070 H   0  0  0  0  0  0  0  0  0  0  0  0
  -16.6102   -6.1512    1.5958 H   0  0  0  0  0  0  0  0  0  0  0  0
  -15.2408   -6.7278   -0.3509 H   0  0  0  0  0  0  0  0  0  0  0  0
  -14.2176   -6.6006   -1.9004 H   0  0  0  0  0  0  0  0  0  0  0  0
  -14.9920   -7.7146   -5.2813 H   0  0  0  0  0  0  0  0  0  0  0  0
  -13.2675   -8.2244   -6.9804 H   0  0  0  0  0  0  0  0  0  0  0  0
  -10.8813   -8.0232   -6.4587 H   0  0  0  0  0  0  0  0  0  0  0  0
   -9.2872   -6.8513   -4.9491 H   0  0  0  0  0  0  0  0  0  0  0  0
   -9.7122   -6.5951   -3.2400 H   0  0  0  0  0  0  0  0  0  0  0  0
   -9.4209   -8.2429   -3.8479 H   0  0  0  0  0  0  0  0  0  0  0  0
  -11.9082   -6.7932   -2.5100 H   0  0  0  0  0  0  0  0  0  0  0  0
  -18.6202   -6.5289   -2.9279 H   0  0  0  0  0  0  0  0  0  0  0  0
  -20.0237   -5.9421   -0.9620 H   0  0  0  0  0  0  0  0  0  0  0  0
  -21.1376   -9.8543    0.8914 N   0  0  0  0  0  0  0  0  0  0  0  0
  -20.0056   -9.2239    0.5695 C   0  0  0  0  0  0  0  0  0  0  0  0
  -19.7635   -7.9196    0.7193 N   0  0  0  0  0  0  0  0  0  0  0  0
  -20.7488   -7.1862    1.2389 C   0  0  0  0  0  0  0  0  0  0  0  0
  -21.9616   -7.7426    1.6063 C   0  0  0  0  0  0  0  0  0  0  0  0
  -22.1111   -9.1056    1.4099 C   0  0  0  0  0  0  0  0  0  0  0  0
  -19.2111   -9.8248    0.1495 H   0  0  0  0  0  0  0  0  0  0  0  0
  -22.7547   -7.1430    2.0255 H   0  0  0  0  0  0  0  0  0  0  0  0
  -23.0428   -9.5797    1.6827 H   0  0  0  0  0  0  0  0  0  0  0  0
  1  2  1  0
  2  3  1  0
  3  4  1  0
  4  5  2  0
  5  6  1  0
  6  7  2  0
  7  8  1  0
  8  9  1  0
  9 10  1  0
 10 11  2  0
 11 12  1  0
 12 13  2  0
 13 14  1  0
 14 15  2  0
 14 16  1  0
 16 17  1  0
 17 18  2  0
 18 19  1  0
 19 20  2  0
 20 21  1  0
 21 22  1  0
 21 23  2  0
 13 24  1  0
 24 25  2  0
  3  7  1  0
 10 25  1  0
 17 23  1  0
  1 26  1  0
  1 27  1  0
  1 28  1  0
  2 29  1  0
  2 30  1  0
  9 31  1  0
  9 32  1  0
 11 33  1  0
 12 34  1  0
 16 35  1  0
 18 36  1  0
 19 37  1  0
 20 38  1  0
 22 39  1  0
 22 40  1  0
 22 41  1  0
 23 42  1  0
 24 43  1  0
 25 44  1  0
 45 46  2  0
 46 51  1  0
 46 47  1  0
 47 48  2  0
 48 49  1  0
 49 52  1  0
 45 50  1  0
 49 50  2  0
 50 53  1  0
  8 48  1  0
M  END
>  <CHROM.1>  (117) 
77.41756773,178.26432856,-119.86301080,-149.71224039,163.79735602,2.14190614
-17.62234872,-6.42079315,-1.42254046,2.61531034,0.05873285,1.11671556

>  <Name>  (117) 
design_15

>  <RI>  (117) 
17438400.000000

>  <Rbt.Current_Directory>  (117) 
/pylon5/mc5pksp/smaltr/gateway_workdirs/PROCESS_93251df5-8da2-4fa9-b874-71853b29d1ad

>  <Rbt.Executable>  (117) 
rbdock ($Id: //depot/dev/client3/rdock/2013.1/src/exe/rbdock.cxx#4 $)

>  <Rbt.Library>  (117) 
libRbt.so (2013.1, Build901 2013/11/27)

>  <Rbt.Parameter_File>  (117) 
/home/smaltr/software/rDock_2013.1_src//data/scripts/dock.prm

>  <Rbt.Receptor>  (117) 
/pylon5/mc5pksp/smaltr/gateway_workdirs/PROCESS_93251df5-8da2-4fa9-b874-71853b29d1ad/output/SnD-Target-Sep02/cavity/pocket_docking.prm

>  <SCORE>  (117) 
-17.669800

>  <SCORE.INTER>  (117) 
-18.310200

>  <SCORE.INTER.CONST>  (117) 
1

>  <SCORE.INTER.POLAR>  (117) 
-2.086010

>  <SCORE.INTER.REPUL>  (117) 
0

>  <SCORE.INTER.ROT>  (117) 
6

>  <SCORE.INTER.VDW>  (117) 
-22.617800

>  <SCORE.INTER.norm>  (117) 
-0.732408

>  <SCORE.INTRA>  (117) 
0.640401

>  <SCORE.INTRA.DIHEDRAL>  (117) 
-0.228389

>  <SCORE.INTRA.DIHEDRAL.0>  (117) 
6.816800

>  <SCORE.INTRA.POLAR>  (117) 
0

>  <SCORE.INTRA.POLAR.0>  (117) 
0

>  <SCORE.INTRA.REPUL>  (117) 
0

>  <SCORE.INTRA.REPUL.0>  (117) 
0

>  <SCORE.INTRA.VDW>  (117) 
0.754596

>  <SCORE.INTRA.VDW.0>  (117) 
-1.611020

>  <SCORE.INTRA.norm>  (117) 
0.025616

>  <SCORE.RESTR>  (117) 
0

>  <SCORE.RESTR.CAVITY>  (117) 
0

>  <SCORE.RESTR.norm>  (117) 
0

>  <SCORE.SYSTEM>  (117) 
0

>  <SCORE.SYSTEM.CONST>  (117) 
0

>  <SCORE.SYSTEM.DIHEDRAL>  (117) 
0

>  <SCORE.SYSTEM.norm>  (117) 
0

>  <SCORE.heavy>  (117) 
25

>  <SCORE.norm>  (117) 
-0.706792

>  <SMILES>  (117) 
CCn1nnnc1NCc1ccc(C(=O)Nc2cccc(C)c2)cc1

>  <Cycle>  (117) 
228

>  <MolWeight>  (117) 
336.399000

>  <LogP>  (117) 
2.865820

>  <QED>  (117) 
0.722880

>  <SAS>  (117) 
1.896355842131265

$$$$
